data_ACOLIP_original

_audit_creation_method RASPA-1.0
_audit_creation_date 2022-1-31
_audit_author_name 'Felipe Lopes de Oliveira <felipe.lopes.oliveira@ibm.com>'

_cell_length_a    11.567
_cell_length_b    11.8393
_cell_length_c    14.227
_cell_angle_alpha 112.497
_cell_angle_beta  90
_cell_angle_gamma 119.242
_cell_volume      1527.86

_symmetry_cell_setting          triclinic
_symmetry_space_group_name_Hall 'P 1'
_symmetry_space_group_name_H-M  'P 1'
_symmetry_Int_Tables_number     1

_symmetry_equiv_pos_as_xyz 'x,y,z'

loop_
_atom_site_label
_atom_site_type_symbol
_atom_site_fract_x
_atom_site_fract_y
_atom_site_fract_z
_atom_site_charge
Zn       Zn     0.345140000000     0.716260000000     0.756240000000     0.420798   
Zn       Zn     0.371120000000     0.716260000000     0.256240000000     0.420798   
H        H      0.530800000000     0.421800000000     0.146100000000     0.072986   
H        H      0.160800000000     0.186400000000     0.968300000000     0.072986   
H        H      0.189700000000     0.006800000000     0.870100000000     0.072986   
H        H      0.418500000000     0.553800000000     0.547700000000     0.072986   
H        H      0.550000000000     0.973800000000     0.708300000000     0.072986   
H        H      0.656700000000     0.941600000000     0.553500000000     0.072986   
H        H      0.613500000000     0.703200000000     0.381500000000     0.072986   
H        H      0.536900000000     0.557400000000     0.390800000000     0.072986   
H        H      0.665900000000     0.528600000000     0.519300000000     0.072986   
H        H      0.878800000000     0.580200000000     0.583800000000     0.072986   
H        H      0.055900000000     0.905200000000     0.501200000000     0.072986   
H        H      0.843000000000     0.853600000000     0.436700000000     0.072986   
H        H      0.135900000000     0.763000000000     0.646600000000     0.072986   
H        H      0.195500000000     0.896600000000     0.620400000000     0.072986   
H        H      0.315000000000     0.885800000000     0.462200000000     0.072986   
H        H      0.174800000000     0.456600000000     0.317800000000     0.072986   
H        H      0.071200000000     0.497400000000     0.473600000000     0.072986   
H        H      0.639700000000     0.209400000000     0.996000000000     0.072986   
H        H      0.678700000000     0.342600000000     0.092300000000     0.072986   
H        H      0.891000000000     0.421800000000     0.646100000000     0.072986   
H        H      0.025600000000     0.186400000000     0.468300000000     0.072986   
H        H      0.817100000000     0.006800000000     0.370100000000     0.072986   
H        H      0.135300000000     0.553800000000     0.047700000000     0.072986   
H        H      0.423800000000     0.973800000000     0.208300000000     0.072986   
H        H      0.284900000000     0.941600000000     0.053500000000     0.072986   
H        H      0.089700000000     0.703200000000     0.881500000000     0.072986   
H        H      0.020500000000     0.557400000000     0.890800000000     0.072986   
H        H      0.862700000000     0.528600000000     0.019300000000     0.072986   
H        H      0.701400000000     0.580200000000     0.083800000000     0.072986   
H        H      0.849300000000     0.905200000000     0.001200000000     0.072986   
H        H      0.010600000000     0.853600000000     0.936700000000     0.072986   
H        H      0.627100000000     0.763000000000     0.146600000000     0.072986   
H        H      0.701100000000     0.896600000000     0.120400000000     0.072986   
H        H      0.570800000000     0.885800000000     0.962200000000     0.072986   
H        H      0.281800000000     0.456600000000     0.817800000000     0.072986   
H        H      0.426200000000     0.497400000000     0.973600000000     0.072986   
H        H      0.569700000000     0.209400000000     0.496000000000     0.072986   
H        H      0.663900000000     0.342600000000     0.592300000000     0.072986   
C        C      0.404100000000     0.983400000000     0.882000000000     0.00838543 
C        C      0.389600000000     0.110000000000     0.946000000000     0.00838543 
C        C      0.496200000000     0.232800000000     0.027900000000     0.00838543 
C        C      0.464300000000     0.339000000000     0.089100000000     0.00838543 
C        C      0.339800000000     0.323000000000     0.067000000000     0.00838543 
C        C      0.244900000000     0.197800000000     0.984200000000     0.00838543 
C        C      0.260300000000     0.090400000000     0.924000000000     0.00838543 
C        C      0.304900000000     0.431600000000     0.129800000000     0.00838543 
C        C      0.460400000000     0.651600000000     0.566300000000     0.00838543 
C        C      0.534800000000     0.887200000000     0.657100000000     0.00838543 
C        C      0.594700000000     0.868800000000     0.570200000000     0.00838543 
C        C      0.601100000000     0.660200000000     0.429600000000     0.00838543 
C        C      0.733400000000     0.686000000000     0.471600000000     0.00838543 
C        C      0.744100000000     0.604000000000     0.515600000000     0.00838543 
C        C      0.871700000000     0.635000000000     0.554300000000     0.00838543 
C        C      0.988500000000     0.747800000000     0.548900000000     0.00838543 
C        C      0.977800000000     0.829800000000     0.504800000000     0.00838543 
C        C      0.850200000000     0.798800000000     0.466200000000     0.00838543 
C        C      0.133600000000     0.793200000000     0.592500000000     0.00838543 
C        C      0.265500000000     0.787400000000     0.443400000000     0.00838543 
C        C      0.186900000000     0.544400000000     0.363900000000     0.00838543 
C        C      0.126400000000     0.566000000000     0.451100000000     0.00838543 
C        C      0.579300000000     0.983400000000     0.382000000000     0.00838543 
C        C      0.720400000000     0.110000000000     0.446000000000     0.00838543 
C        C      0.736600000000     0.232800000000     0.527900000000     0.00838543 
C        C      0.874700000000     0.339000000000     0.589100000000     0.00838543 
C        C      0.983200000000     0.323000000000     0.567000000000     0.00838543 
C        C      0.952900000000     0.197800000000     0.484200000000     0.00838543 
C        C      0.830100000000     0.090400000000     0.424000000000     0.00838543 
C        C      0.126700000000     0.431600000000     0.629800000000     0.00838543 
C        C      0.191200000000     0.651600000000     0.066300000000     0.00838543 
C        C      0.352400000000     0.887200000000     0.157100000000     0.00838543 
C        C      0.274100000000     0.868800000000     0.070200000000     0.00838543 
C        C      0.059100000000     0.660200000000     0.929600000000     0.00838543 
C        C      0.952600000000     0.686000000000     0.971600000000     0.00838543 
C        C      0.859900000000     0.604000000000     0.015600000000     0.00838543 
C        C      0.763300000000     0.635000000000     0.054300000000     0.00838543 
C        C      0.759300000000     0.747800000000     0.048900000000     0.00838543 
C        C      0.852000000000     0.829800000000     0.004800000000     0.00838543 
C        C      0.948600000000     0.798800000000     0.966200000000     0.00838543 
C        C      0.659600000000     0.793200000000     0.092500000000     0.00838543 
C        C      0.521900000000     0.787400000000     0.943400000000     0.00838543 
C        C      0.357500000000     0.544400000000     0.863900000000     0.00838543 
C        C      0.439600000000     0.566000000000     0.951100000000     0.00838543 
N        N      0.448200000000     0.749800000000     0.651200000000    -0.173902   
N        N      0.544200000000     0.722000000000     0.514000000000    -0.173902   
N        N      0.270100000000     0.679600000000     0.357900000000    -0.173902   
N        N      0.167500000000     0.714600000000     0.497400000000    -0.173902   
N        N      0.617600000000     0.265000000000     0.040000000000    -0.173902   
N        N      0.301600000000     0.749800000000     0.151200000000    -0.173902   
N        N      0.177800000000     0.722000000000     0.014000000000    -0.173902   
N        N      0.409500000000     0.679600000000     0.857900000000    -0.173902   
N        N      0.547100000000     0.714600000000     0.997400000000    -0.173902   
N        N      0.647400000000     0.265000000000     0.540000000000    -0.173902   
O        O      0.525400000000     0.011400000000     0.896100000000    -0.280626   
O        O      0.302000000000     0.866200000000     0.822000000000    -0.280626   
O        O      0.406700000000     0.548000000000     0.190700000000    -0.280626   
O        O      0.188000000000     0.417600000000     0.120600000000    -0.280626   
O        O      0.486000000000     0.011400000000     0.396100000000    -0.280626   
O        O      0.564200000000     0.866200000000     0.322000000000    -0.280626   
O        O      0.141300000000     0.548000000000     0.690700000000    -0.280626   
O        O      0.229600000000     0.417600000000     0.620600000000    -0.280626   


