data_ACUBAB_original

_audit_creation_method RASPA-1.0
_audit_creation_date 2022-1-28
_audit_author_name 'Felipe Lopes de Oliveira <felipe.lopes.oliveira@ibm.com>'

_cell_length_a    8.8775
_cell_length_b    8.8775
_cell_length_c    23.775
_cell_angle_alpha 90
_cell_angle_beta  90
_cell_angle_gamma 120
_cell_volume      1622.68

_symmetry_cell_setting          triclinic
_symmetry_space_group_name_Hall 'P 1'
_symmetry_space_group_name_H-M  'P 1'
_symmetry_Int_Tables_number     1

_symmetry_equiv_pos_as_xyz 'x,y,z'

loop_
_atom_site_label
_atom_site_type_symbol
_atom_site_fract_x
_atom_site_fract_y
_atom_site_fract_z
_atom_site_charge
Zn       Zn     0.960020000000     0.293290000000     0.455920000000     0.500755   
Zn       Zn     0.333270000000     0.039980000000     0.455920000000     0.500755   
Zn       Zn     0.706710000000     0.666730000000     0.455920000000     0.500755   
Zn       Zn     0.333270000000     0.293290000000     0.044080000000     0.500755   
Zn       Zn     0.706710000000     0.039980000000     0.044080000000     0.500755   
Zn       Zn     0.960020000000     0.666730000000     0.044080000000     0.500755   
Zn       Zn     0.039980000000     0.706710000000     0.544080000000     0.500755   
Zn       Zn     0.666730000000     0.960020000000     0.544080000000     0.500755   
Zn       Zn     0.293290000000     0.333270000000     0.544080000000     0.500755   
Zn       Zn     0.666730000000     0.706710000000     0.955920000000     0.500755   
Zn       Zn     0.293290000000     0.960020000000     0.955920000000     0.500755   
Zn       Zn     0.039980000000     0.333270000000     0.955920000000     0.500755   
Zn       Zn     0.333330000000     0.666660000000     0.350620000000     0.500755   
Zn       Zn     0.333330000000     0.666660000000     0.149380000000     0.500755   
Zn       Zn     0.666670000000     0.333340000000     0.649380000000     0.500755   
Zn       Zn     0.666670000000     0.333340000000     0.850620000000     0.500755   
P        P      0.035310000000     0.680920000000     0.417250000000     0.50915    
P        P      0.645610000000     0.964690000000     0.417250000000     0.50915    
P        P      0.319080000000     0.354390000000     0.417250000000     0.50915    
P        P      0.645610000000     0.680920000000     0.082750000000     0.50915    
P        P      0.319080000000     0.964690000000     0.082750000000     0.50915    
P        P      0.035310000000     0.354390000000     0.082750000000     0.50915    
P        P      0.964690000000     0.319080000000     0.582750000000     0.50915    
P        P      0.354390000000     0.035310000000     0.582750000000     0.50915    
P        P      0.680920000000     0.645610000000     0.582750000000     0.50915    
P        P      0.354390000000     0.319080000000     0.917250000000     0.50915    
P        P      0.680920000000     0.035310000000     0.917250000000     0.50915    
P        P      0.964690000000     0.645610000000     0.917250000000     0.50915    
Cl       Cl     0.333330000000     0.666660000000     0.250000000000    -0.298312   
Cl       Cl     0.666670000000     0.333340000000     0.750000000000    -0.298312   
O        O      0.949500000000     0.493100000000     0.434370000000    -0.281776   
O        O      0.145000000000     0.795700000000     0.468140000000    -0.281776   
O        O      0.896800000000     0.729100000000     0.403390000000    -0.281776   
O        O      0.157600000000     0.726400000000     0.366860000000    -0.281776   
O        O      0.543600000000     0.050500000000     0.434370000000    -0.281776   
O        O      0.650700000000     0.855000000000     0.468140000000    -0.281776   
O        O      0.832300000000     0.103200000000     0.403390000000    -0.281776   
O        O      0.568800000000     0.842400000000     0.366860000000    -0.281776   
O        O      0.506900000000     0.456400000000     0.434370000000    -0.281776   
O        O      0.204300000000     0.349300000000     0.468140000000    -0.281776   
O        O      0.270900000000     0.167700000000     0.403390000000    -0.281776   
O        O      0.273600000000     0.431200000000     0.366860000000    -0.281776   
O        O      0.543600000000     0.493100000000     0.065630000000    -0.281776   
O        O      0.650700000000     0.795700000000     0.031860000000    -0.281776   
O        O      0.832300000000     0.729100000000     0.096610000000    -0.281776   
O        O      0.568800000000     0.726400000000     0.133140000000    -0.281776   
O        O      0.506900000000     0.050500000000     0.065630000000    -0.281776   
O        O      0.204300000000     0.855000000000     0.031860000000    -0.281776   
O        O      0.270900000000     0.103200000000     0.096610000000    -0.281776   
O        O      0.273600000000     0.842400000000     0.133140000000    -0.281776   
O        O      0.949500000000     0.456400000000     0.065630000000    -0.281776   
O        O      0.145000000000     0.349300000000     0.031860000000    -0.281776   
O        O      0.896800000000     0.167700000000     0.096610000000    -0.281776   
O        O      0.157600000000     0.431200000000     0.133140000000    -0.281776   
O        O      0.050500000000     0.506900000000     0.565630000000    -0.281776   
O        O      0.855000000000     0.204300000000     0.531860000000    -0.281776   
O        O      0.103200000000     0.270900000000     0.596610000000    -0.281776   
O        O      0.842400000000     0.273600000000     0.633140000000    -0.281776   
O        O      0.456400000000     0.949500000000     0.565630000000    -0.281776   
O        O      0.349300000000     0.145000000000     0.531860000000    -0.281776   
O        O      0.167700000000     0.896800000000     0.596610000000    -0.281776   
O        O      0.431200000000     0.157600000000     0.633140000000    -0.281776   
O        O      0.493100000000     0.543600000000     0.565630000000    -0.281776   
O        O      0.795700000000     0.650700000000     0.531860000000    -0.281776   
O        O      0.729100000000     0.832300000000     0.596610000000    -0.281776   
O        O      0.726400000000     0.568800000000     0.633140000000    -0.281776   
O        O      0.456400000000     0.506900000000     0.934370000000    -0.281776   
O        O      0.349300000000     0.204300000000     0.968140000000    -0.281776   
O        O      0.167700000000     0.270900000000     0.903390000000    -0.281776   
O        O      0.431200000000     0.273600000000     0.866860000000    -0.281776   
O        O      0.493100000000     0.949500000000     0.934370000000    -0.281776   
O        O      0.795700000000     0.145000000000     0.968140000000    -0.281776   
O        O      0.729100000000     0.896800000000     0.903390000000    -0.281776   
O        O      0.726400000000     0.157600000000     0.866860000000    -0.281776   
O        O      0.050500000000     0.543600000000     0.934370000000    -0.281776   
O        O      0.855000000000     0.650700000000     0.968140000000    -0.281776   
O        O      0.103200000000     0.832300000000     0.903390000000    -0.281776   
O        O      0.842400000000     0.568800000000     0.866860000000    -0.281776   


