data_AFITIT_original

_audit_creation_method RASPA-1.0
_audit_creation_date 2022-1-31
_audit_author_name 'Felipe Lopes de Oliveira <felipe.lopes.oliveira@ibm.com>'

_cell_length_a    14.0334
_cell_length_b    17.7321
_cell_length_c    17.7321
_cell_angle_alpha 104.172
_cell_angle_beta  92.1983
_cell_angle_gamma 92.1983
_cell_volume      4269.85

_symmetry_cell_setting          triclinic
_symmetry_space_group_name_Hall 'P 1'
_symmetry_space_group_name_H-M  'P 1'
_symmetry_Int_Tables_number     1

_symmetry_equiv_pos_as_xyz 'x,y,z'

loop_
_atom_site_label
_atom_site_type_symbol
_atom_site_fract_x
_atom_site_fract_y
_atom_site_fract_z
_atom_site_charge
Zn       Zn     0.104780000000     0.088970000000     0.921270000000     0.462639   
Zn       Zn     0.895220000000     0.078730000000     0.911030000000     0.462639   
Zn       Zn     0.419250000000     0.289850000000     0.457200000000     0.462639   
Zn       Zn     0.209210000000     0.276860000000     0.445760000000     0.462639   
Zn       Zn     0.580750000000     0.542800000000     0.710150000000     0.462639   
Zn       Zn     0.790790000000     0.554240000000     0.723140000000     0.462639   
H        H      0.851600000000     0.321500000000     0.903700000000     0.102545   
H        H      0.141100000000     0.338600000000     0.959400000000     0.102545   
H        H      0.235500000000     0.452000000000     0.961200000000     0.102545   
H        H      0.193800000000     0.508300000000     0.911300000000     0.102545   
H        H      0.179600000000     0.526800000000     0.003000000000     0.102545   
H        H      0.863100000000     0.450300000000     0.890100000000     0.102545   
H        H      0.860400000000     0.697600000000     0.897000000000     0.102545   
H        H      0.231700000000     0.756700000000     0.951900000000     0.102545   
H        H      0.177600000000     0.696800000000     0.992000000000     0.102545   
H        H      0.197200000000     0.671700000000     0.901100000000     0.102545   
H        H      0.134800000000     0.855600000000     0.925200000000     0.102545   
H        H      0.854100000000     0.827100000000     0.893900000000     0.102545   
H        H      0.262300000000     0.113300000000     0.818700000000     0.102545   
H        H      0.268600000000     0.058100000000     0.022700000000     0.102545   
H        H      0.432600000000     0.052600000000     0.022400000000     0.102545   
H        H      0.424300000000     0.108900000000     0.815500000000     0.102545   
H        H      0.148400000000     0.096300000000     0.678500000000     0.102545   
H        H      0.858900000000     0.040600000000     0.661400000000     0.102545   
H        H      0.764500000000     0.038800000000     0.548000000000     0.102545   
H        H      0.806200000000     0.088700000000     0.491700000000     0.102545   
H        H      0.820400000000     0.997000000000     0.473200000000     0.102545   
H        H      0.136900000000     0.109900000000     0.549700000000     0.102545   
H        H      0.139600000000     0.103000000000     0.302400000000     0.102545   
H        H      0.768300000000     0.048100000000     0.243300000000     0.102545   
H        H      0.822400000000     0.008000000000     0.303200000000     0.102545   
H        H      0.802800000000     0.098900000000     0.328300000000     0.102545   
H        H      0.865200000000     0.074800000000     0.144400000000     0.102545   
H        H      0.145900000000     0.106100000000     0.172900000000     0.102545   
H        H      0.737700000000     0.181300000000     0.886700000000     0.102545   
H        H      0.731400000000     0.977300000000     0.941900000000     0.102545   
H        H      0.567400000000     0.977600000000     0.947400000000     0.102545   
H        H      0.575700000000     0.184500000000     0.891100000000     0.102545   
H        H      0.459800000000     0.284500000000     0.220300000000     0.102545   
H        H      0.166100000000     0.254200000000     0.192800000000     0.102545   
H        H      0.176300000000     0.261900000000     0.064700000000     0.102545   
H        H      0.515800000000     0.343300000000     0.067900000000     0.102545   
H        H      0.554700000000     0.286900000000     0.118900000000     0.102545   
H        H      0.510000000000     0.251100000000     0.032500000000     0.102545   
H        H      0.514200000000     0.318100000000     0.878900000000     0.102545   
H        H      0.528500000000     0.382100000000     0.829900000000     0.102545   
H        H      0.466900000000     0.400600000000     0.905800000000     0.102545   
H        H      0.185300000000     0.249400000000     0.814800000000     0.102545   
H        H      0.180200000000     0.254200000000     0.685600000000     0.102545   
H        H      0.442900000000     0.350200000000     0.711400000000     0.102545   
H        H      0.462800000000     0.052100000000     0.460700000000     0.102545   
H        H      0.187000000000     0.029600000000     0.418000000000     0.102545   
H        H      0.186200000000     0.897000000000     0.423600000000     0.102545   
H        H      0.561300000000     0.954100000000     0.479100000000     0.102545   
H        H      0.508300000000     0.889700000000     0.514300000000     0.102545   
H        H      0.531400000000     0.869900000000     0.424100000000     0.102545   
H        H      0.194300000000     0.640500000000     0.400300000000     0.102545   
H        H      0.529500000000     0.702200000000     0.500200000000     0.102545   
H        H      0.460800000000     0.746800000000     0.564600000000     0.102545   
H        H      0.514900000000     0.672900000000     0.577700000000     0.102545   
H        H      0.442900000000     0.547300000000     0.528300000000     0.102545   
H        H      0.183700000000     0.513800000000     0.408400000000     0.102545   
H        H      0.565600000000     0.229900000000     0.343300000000     0.102545   
H        H      0.592300000000     0.369800000000     0.552600000000     0.102545   
H        H      0.756400000000     0.364500000000     0.553100000000     0.102545   
H        H      0.725800000000     0.221800000000     0.336400000000     0.102545   
H        H      0.889300000000     0.286700000000     0.561700000000     0.102545   
H        H      0.881200000000     0.275100000000     0.331100000000     0.102545   
H        H      0.044800000000     0.270400000000     0.334000000000     0.102545   
H        H      0.055000000000     0.283500000000     0.556300000000     0.102545   
H        H      0.540200000000     0.779700000000     0.715500000000     0.102545   
H        H      0.833900000000     0.807200000000     0.745800000000     0.102545   
H        H      0.823700000000     0.935300000000     0.738100000000     0.102545   
H        H      0.484200000000     0.932100000000     0.656700000000     0.102545   
H        H      0.445300000000     0.881100000000     0.713100000000     0.102545   
H        H      0.490000000000     0.967500000000     0.748900000000     0.102545   
H        H      0.485800000000     0.121100000000     0.681900000000     0.102545   
H        H      0.471500000000     0.170100000000     0.617900000000     0.102545   
H        H      0.533100000000     0.094200000000     0.599400000000     0.102545   
H        H      0.814700000000     0.185200000000     0.750600000000     0.102545   
H        H      0.819800000000     0.314400000000     0.745800000000     0.102545   
H        H      0.557100000000     0.288600000000     0.649800000000     0.102545   
H        H      0.537200000000     0.539300000000     0.947900000000     0.102545   
H        H      0.813000000000     0.582000000000     0.970400000000     0.102545   
H        H      0.813800000000     0.576400000000     0.103000000000     0.102545   
H        H      0.438700000000     0.520900000000     0.045900000000     0.102545   
H        H      0.491700000000     0.485700000000     0.110300000000     0.102545   
H        H      0.468600000000     0.575900000000     0.130100000000     0.102545   
H        H      0.805700000000     0.599700000000     0.359500000000     0.102545   
H        H      0.470500000000     0.499800000000     0.297800000000     0.102545   
H        H      0.539200000000     0.435400000000     0.253200000000     0.102545   
H        H      0.485100000000     0.422300000000     0.327100000000     0.102545   
H        H      0.557100000000     0.471700000000     0.452700000000     0.102545   
H        H      0.816300000000     0.591600000000     0.486200000000     0.102545   
H        H      0.434400000000     0.656700000000     0.770100000000     0.102545   
H        H      0.407700000000     0.447400000000     0.630200000000     0.102545   
H        H      0.243600000000     0.446900000000     0.635500000000     0.102545   
H        H      0.274200000000     0.663600000000     0.778200000000     0.102545   
H        H      0.110700000000     0.438300000000     0.713300000000     0.102545   
H        H      0.118800000000     0.668900000000     0.724900000000     0.102545   
H        H      0.955200000000     0.666000000000     0.729600000000     0.102545   
H        H      0.945000000000     0.443700000000     0.716500000000     0.102545   
C        C      0.995800000000     0.233000000000     0.929600000000    -0.0338283  
C        C      0.999200000000     0.315130000000     0.927870000000    -0.0338283  
C        C      0.911200000000     0.350100000000     0.910900000000    -0.0338283  
C        C      0.085200000000     0.361100000000     0.944700000000    -0.0338283  
C        C      0.090400000000     0.437000000000     0.940400000000    -0.0338283  
C        C      0.182900000000     0.485190000000     0.955210000000    -0.0338283  
C        C      0.918200000000     0.427460000000     0.905740000000    -0.0338283  
C        C      0.002200000000     0.471000000000     0.922600000000    -0.0338283  
C        C      0.007300000000     0.553300000000     0.921500000000    -0.0338283  
C        C      0.008600000000     0.619700000000     0.921300000000    -0.0338283  
C        C      0.003400000000     0.700800000000     0.917400000000    -0.0338283  
C        C      0.917300000000     0.729800000000     0.903800000000    -0.0338283  
C        C      0.088700000000     0.745100000000     0.925900000000    -0.0338283  
C        C      0.181700000000     0.715070000000     0.944330000000    -0.0338283  
C        C      0.078600000000     0.822610000000     0.919190000000    -0.0338283  
C        C      0.914000000000     0.805640000000     0.900160000000    -0.0338283  
C        C      0.997900000000     0.851820000000     0.905580000000    -0.0338283  
C        C      0.992900000000     0.937740000000     0.906060000000    -0.0338283  
C        C      0.297200000000     0.100790000000     0.860610000000    -0.0338283  
C        C      0.301100000000     0.068390000000     0.980010000000    -0.0338283  
C        C      0.398100000000     0.065540000000     0.980460000000    -0.0338283  
C        C      0.393500000000     0.098660000000     0.858940000000    -0.0338283  
C        C      0.446800000000     0.082400000000     0.917400000000    -0.0338283  
C        C      0.004200000000     0.070400000000     0.767000000000    -0.0338283  
C        C      0.000800000000     0.072130000000     0.684870000000    -0.0338283  
C        C      0.088800000000     0.089100000000     0.649900000000    -0.0338283  
C        C      0.914800000000     0.055300000000     0.638900000000    -0.0338283  
C        C      0.909600000000     0.059600000000     0.563000000000    -0.0338283  
C        C      0.817100000000     0.044790000000     0.514810000000    -0.0338283  
C        C      0.081800000000     0.094260000000     0.572540000000    -0.0338283  
C        C      0.997800000000     0.077400000000     0.529000000000    -0.0338283  
C        C      0.992700000000     0.078500000000     0.446700000000    -0.0338283  
C        C      0.991400000000     0.078700000000     0.380300000000    -0.0338283  
C        C      0.996600000000     0.082600000000     0.299200000000    -0.0338283  
C        C      0.082700000000     0.096200000000     0.270200000000    -0.0338283  
C        C      0.911300000000     0.074100000000     0.254900000000    -0.0338283  
C        C      0.818300000000     0.055670000000     0.284930000000    -0.0338283  
C        C      0.921400000000     0.080810000000     0.177390000000    -0.0338283  
C        C      0.086000000000     0.099840000000     0.194360000000    -0.0338283  
C        C      0.002100000000     0.094420000000     0.148180000000    -0.0338283  
C        C      0.007100000000     0.093940000000     0.062260000000    -0.0338283  
C        C      0.702800000000     0.139390000000     0.899210000000    -0.0338283  
C        C      0.698900000000     0.019990000000     0.931610000000    -0.0338283  
C        C      0.601900000000     0.019540000000     0.934460000000    -0.0338283  
C        C      0.606500000000     0.141060000000     0.901340000000    -0.0338283  
C        C      0.553200000000     0.082600000000     0.917600000000    -0.0338283  
C        C      0.308300000000     0.269500000000     0.303100000000    -0.0338283  
C        C      0.310500000000     0.271500000000     0.222100000000    -0.0338283  
C        C      0.402400000000     0.281700000000     0.189300000000    -0.0338283  
C        C      0.226500000000     0.263150000000     0.173250000000    -0.0338283  
C        C      0.232800000000     0.268100000000     0.097300000000    -0.0338283  
C        C      0.406000000000     0.287400000000     0.112600000000    -0.0338283  
C        C      0.505700000000     0.292600000000     0.080000000000    -0.0338283  
C        C      0.322600000000     0.282400000000     0.066200000000    -0.0338283  
C        C      0.322700000000     0.287900000000     0.987900000000    -0.0338283  
C        C      0.321200000000     0.291700000000     0.921500000000    -0.0338283  
C        C      0.320000000000     0.297300000000     0.843100000000    -0.0338283  
C        C      0.396900000000     0.327800000000     0.812200000000    -0.0338283  
C        C      0.484000000000     0.359800000000     0.860800000000    -0.0338283  
C        C      0.239300000000     0.270000000000     0.794400000000    -0.0338283  
C        C      0.236600000000     0.272400000000     0.717400000000    -0.0338283  
C        C      0.390600000000     0.328800000000     0.733000000000    -0.0338283  
C        C      0.311200000000     0.299640000000     0.686560000000    -0.0338283  
C        C      0.314500000000     0.294920000000     0.597680000000    -0.0338283  
C        C      0.325100000000     0.137050000000     0.438750000000    -0.0338283  
C        C      0.327900000000     0.050060000000     0.436140000000    -0.0338283  
C        C      0.406400000000     0.019000000000     0.449400000000    -0.0338283  
C        C      0.245300000000     0.006800000000     0.426600000000    -0.0338283  
C        C      0.244500000000     0.927400000000     0.429400000000    -0.0338283  
C        C      0.414900000000     0.940700000000     0.448500000000    -0.0338283  
C        C      0.513000000000     0.910900000000     0.468300000000    -0.0338283  
C        C      0.329800000000     0.895600000000     0.440600000000    -0.0338283  
C        C      0.328100000000     0.815700000000     0.447700000000    -0.0338283  
C        C      0.329600000000     0.750700000000     0.453300000000    -0.0338283  
C        C      0.324700000000     0.670900000000     0.459700000000    -0.0338283  
C        C      0.244700000000     0.620700000000     0.425900000000    -0.0338283  
C        C      0.400300000000     0.643010000000     0.498790000000    -0.0338283  
C        C      0.483700000000     0.695900000000     0.538900000000    -0.0338283  
C        C      0.393700000000     0.566580000000     0.501020000000    -0.0338283  
C        C      0.238800000000     0.546200000000     0.429200000000    -0.0338283  
C        C      0.318500000000     0.515700000000     0.465100000000    -0.0338283  
C        C      0.314100000000     0.433500000000     0.469300000000    -0.0338283  
C        C      0.605300000000     0.255720000000     0.387280000000    -0.0338283  
C        C      0.620600000000     0.337070000000     0.509470000000    -0.0338283  
C        C      0.718000000000     0.335150000000     0.509830000000    -0.0338283  
C        C      0.699500000000     0.250990000000     0.382410000000    -0.0338283  
C        C      0.759100000000     0.289880000000     0.446280000000    -0.0338283  
C        C      0.865600000000     0.282830000000     0.445030000000    -0.0338283  
C        C      0.919300000000     0.284130000000     0.514070000000    -0.0338283  
C        C      0.915000000000     0.277150000000     0.379050000000    -0.0338283  
C        C      0.013000000000     0.274360000000     0.381040000000    -0.0338283  
C        C      0.018000000000     0.281630000000     0.509770000000    -0.0338283  
C        C      0.691700000000     0.696900000000     0.730500000000    -0.0338283  
C        C      0.689500000000     0.777900000000     0.728500000000    -0.0338283  
C        C      0.597600000000     0.810700000000     0.718300000000    -0.0338283  
C        C      0.773500000000     0.826750000000     0.736850000000    -0.0338283  
C        C      0.767200000000     0.902700000000     0.731900000000    -0.0338283  
C        C      0.594000000000     0.887400000000     0.712600000000    -0.0338283  
C        C      0.494300000000     0.920000000000     0.707400000000    -0.0338283  
C        C      0.677400000000     0.933800000000     0.717600000000    -0.0338283  
C        C      0.677300000000     0.012100000000     0.712100000000    -0.0338283  
C        C      0.678800000000     0.078500000000     0.708300000000    -0.0338283  
C        C      0.680000000000     0.156900000000     0.702700000000    -0.0338283  
C        C      0.603100000000     0.187800000000     0.672200000000    -0.0338283  
C        C      0.516000000000     0.139200000000     0.640200000000    -0.0338283  
C        C      0.760700000000     0.205600000000     0.730000000000    -0.0338283  
C        C      0.763400000000     0.282600000000     0.727600000000    -0.0338283  
C        C      0.609400000000     0.267000000000     0.671200000000    -0.0338283  
C        C      0.688800000000     0.313440000000     0.700360000000    -0.0338283  
C        C      0.685500000000     0.402320000000     0.705080000000    -0.0338283  
C        C      0.674900000000     0.561250000000     0.862950000000    -0.0338283  
C        C      0.672100000000     0.563860000000     0.949940000000    -0.0338283  
C        C      0.593600000000     0.550600000000     0.981000000000    -0.0338283  
C        C      0.754700000000     0.573400000000     0.993200000000    -0.0338283  
C        C      0.755500000000     0.570600000000     0.072600000000    -0.0338283  
C        C      0.585100000000     0.551500000000     0.059300000000    -0.0338283  
C        C      0.487000000000     0.531700000000     0.089100000000    -0.0338283  
C        C      0.670200000000     0.559400000000     0.104400000000    -0.0338283  
C        C      0.671900000000     0.552300000000     0.184300000000    -0.0338283  
C        C      0.670400000000     0.546700000000     0.249300000000    -0.0338283  
C        C      0.675300000000     0.540300000000     0.329100000000    -0.0338283  
C        C      0.755300000000     0.574100000000     0.379300000000    -0.0338283  
C        C      0.599700000000     0.501210000000     0.356990000000    -0.0338283  
C        C      0.516300000000     0.461100000000     0.304100000000    -0.0338283  
C        C      0.606300000000     0.498980000000     0.433420000000    -0.0338283  
C        C      0.761200000000     0.570800000000     0.453800000000    -0.0338283  
C        C      0.681500000000     0.534900000000     0.484300000000    -0.0338283  
C        C      0.685900000000     0.530700000000     0.566500000000    -0.0338283  
C        C      0.394700000000     0.612720000000     0.744280000000    -0.0338283  
C        C      0.379400000000     0.490530000000     0.662930000000    -0.0338283  
C        C      0.282000000000     0.490170000000     0.664850000000    -0.0338283  
C        C      0.300500000000     0.617590000000     0.749010000000    -0.0338283  
C        C      0.240900000000     0.553720000000     0.710120000000    -0.0338283  
C        C      0.134400000000     0.554970000000     0.717170000000    -0.0338283  
C        C      0.080700000000     0.485930000000     0.715870000000    -0.0338283  
C        C      0.085000000000     0.620950000000     0.722850000000    -0.0338283  
C        C      0.987000000000     0.618960000000     0.725640000000    -0.0338283  
C        C      0.982000000000     0.490230000000     0.718370000000    -0.0338283  
N        N      0.249200000000     0.085610000000     0.920410000000    -0.159352   
N        N      0.750800000000     0.079590000000     0.914390000000    -0.159352   
N        N      0.563600000000     0.294810000000     0.450770000000    -0.159352   
N        N      0.063800000000     0.276810000000     0.444610000000    -0.159352   
N        N      0.436400000000     0.549230000000     0.705190000000    -0.159352   
N        N      0.936200000000     0.555390000000     0.723190000000    -0.159352   
O        O      0.070100000000     0.972900000000     0.902100000000    -0.29149    
O        O      0.910300000000     0.962580000000     0.904820000000    -0.29149    
O        O      0.916300000000     0.194790000000     0.918410000000    -0.29149    
O        O      0.076200000000     0.202250000000     0.939650000000    -0.29149    
O        O      0.929900000000     0.097900000000     0.027100000000    -0.29149    
O        O      0.089700000000     0.095180000000     0.037420000000    -0.29149    
O        O      0.083700000000     0.081590000000     0.805210000000    -0.29149    
O        O      0.923800000000     0.060350000000     0.797750000000    -0.29149    
O        O      0.384800000000     0.276130000000     0.342070000000    -0.29149    
O        O      0.227100000000     0.264970000000     0.331810000000    -0.29149    
O        O      0.391900000000     0.299840000000     0.571560000000    -0.29149    
O        O      0.232200000000     0.289920000000     0.563620000000    -0.29149    
O        O      0.402400000000     0.172990000000     0.443910000000    -0.29149    
O        O      0.243600000000     0.163280000000     0.433920000000    -0.29149    
O        O      0.395600000000     0.403730000000     0.475470000000    -0.29149    
O        O      0.236700000000     0.394060000000     0.459940000000    -0.29149    
O        O      0.615200000000     0.657930000000     0.723870000000    -0.29149    
O        O      0.772900000000     0.668190000000     0.735030000000    -0.29149    
O        O      0.608100000000     0.428440000000     0.700160000000    -0.29149    
O        O      0.767800000000     0.436380000000     0.710080000000    -0.29149    
O        O      0.597600000000     0.556090000000     0.827010000000    -0.29149    
O        O      0.756400000000     0.566080000000     0.836720000000    -0.29149    
O        O      0.604400000000     0.524530000000     0.596270000000    -0.29149    
O        O      0.763300000000     0.540060000000     0.605940000000    -0.29149    


