data_AFOQUI_original

_audit_creation_method RASPA-1.0
_audit_creation_date 2022-1-28
_audit_author_name 'Felipe Lopes de Oliveira <felipe.lopes.oliveira@ibm.com>'

_cell_length_a    9.8623
_cell_length_b    13.1949
_cell_length_c    17.8953
_cell_angle_alpha 84.0894
_cell_angle_beta  74.005
_cell_angle_gamma 68.0552
_cell_volume      2076.4

_symmetry_cell_setting          triclinic
_symmetry_space_group_name_Hall 'P 1'
_symmetry_space_group_name_H-M  'P 1'
_symmetry_Int_Tables_number     1

_symmetry_equiv_pos_as_xyz 'x,y,z'

loop_
_atom_site_label
_atom_site_type_symbol
_atom_site_fract_x
_atom_site_fract_y
_atom_site_fract_z
_atom_site_charge
Zn       Zn     0.525130000000     0.819280000000     0.167980000000     0.407116   
Zn       Zn     0.866730000000     0.102200000000     0.194540000000     0.407116   
Zn       Zn     0.512390000000     0.180720000000     0.832020000000     0.407116   
Zn       Zn     0.163480000000     0.897790000000     0.805450000000     0.407116   
Zn       Zn     0.943110000000     0.319280000000     0.332020000000     0.407116   
Zn       Zn     0.311270000000     0.602210000000     0.305450000000     0.407116   
Zn       Zn     0.594410000000     0.680720000000     0.667980000000     0.407116   
Zn       Zn     0.218920000000     0.397800000000     0.694550000000     0.407116   
Zn       Zn     0.020270000000     0.000000000000     0.000000000000     0.407116   
Zn       Zn     0.270270000000     0.500000000000     0.500000000000     0.407116   
H        H      0.723700000000     0.457200000000     0.118400000000     0.0304087  
H        H      0.878400000000     0.614400000000     0.931000000000     0.0304087  
H        H      0.022700000000     0.286600000000     0.931800000000     0.0304087  
H        H      0.355900000000     0.873600000000     0.034000000000     0.0304087  
H        H      0.188900000000     0.984800000000     0.245200000000     0.0304087  
H        H      0.803000000000     0.852600000000     0.037000000000     0.0304087  
H        H      0.604800000000     0.996400000000     0.236800000000     0.0304087  
H        H      0.299300000000     0.542800000000     0.881600000000     0.0304087  
H        H      0.423800000000     0.385600000000     0.069000000000     0.0304087  
H        H      0.241100000000     0.713400000000     0.068200000000     0.0304087  
H        H      0.263500000000     0.126400000000     0.966000000000     0.0304087  
H        H      0.418900000000     0.015200000000     0.754800000000     0.0304087  
H        H      0.692600000000     0.147400000000     0.963000000000     0.0304087  
H        H      0.838000000000     0.003600000000     0.763200000000     0.0304087  
H        H      0.092100000000     0.957200000000     0.381600000000     0.0304087  
H        H      0.059400000000     0.114400000000     0.569000000000     0.0304087  
H        H      0.204500000000     0.786600000000     0.568200000000     0.0304087  
H        H      0.639900000000     0.373600000000     0.466000000000     0.0304087  
H        H      0.684100000000     0.484800000000     0.254800000000     0.0304087  
H        H      0.090000000000     0.352600000000     0.463000000000     0.0304087  
H        H      0.091600000000     0.496400000000     0.263200000000     0.0304087  
H        H      0.430900000000     0.042800000000     0.618400000000     0.0304087  
H        H      0.742800000000     0.885600000000     0.431000000000     0.0304087  
H        H      0.559300000000     0.213400000000     0.431800000000     0.0304087  
H        H      0.479500000000     0.626400000000     0.534000000000     0.0304087  
H        H      0.423700000000     0.515200000000     0.745200000000     0.0304087  
H        H      0.905600000000     0.647400000000     0.537000000000     0.0304087  
H        H      0.851200000000     0.503600000000     0.736800000000     0.0304087  
C        C      0.877500000000     0.250000000000     0.072000000000     0.0960593  
C        C      0.874490000000     0.356200000000     0.031820000000     0.0960593  
C        C      0.784010000000     0.455460000000     0.068120000000     0.0960593  
C        C      0.783430000000     0.552120000000     0.029620000000     0.0960593  
C        C      0.680750000000     0.660520000000     0.066580000000     0.0960593  
C        C      0.877570000000     0.549400000000     0.956260000000     0.0960593  
C        C      0.971790000000     0.449660000000     0.919560000000     0.0960593  
C        C      0.072320000000     0.449620000000     0.840340000000     0.0960593  
C        C      0.965530000000     0.353320000000     0.957020000000     0.0960593  
C        C      0.289310000000     0.910720000000     0.078860000000     0.0960593  
C        C      0.199050000000     0.970940000000     0.193560000000     0.0960593  
C        C      0.776930000000     0.897880000000     0.079260000000     0.0960593  
C        C      0.669180000000     0.975720000000     0.187520000000     0.0960593  
C        C      0.199500000000     0.750000000000     0.928000000000     0.0960593  
C        C      0.262510000000     0.643800000000     0.968180000000     0.0960593  
C        C      0.307590000000     0.544540000000     0.931880000000     0.0960593  
C        C      0.365170000000     0.447880000000     0.970380000000     0.0960593  
C        C      0.407850000000     0.339480000000     0.933420000000     0.0960593  
C        C      0.383230000000     0.450600000000     0.043740000000     0.0960593  
C        C      0.341010000000     0.550340000000     0.080440000000     0.0960593  
C        C      0.362280000000     0.550380000000     0.159660000000     0.0960593  
C        C      0.275870000000     0.646680000000     0.042980000000     0.0960593  
C        C      0.278890000000     0.089280000000     0.921140000000     0.0960593  
C        C      0.363550000000     0.029060000000     0.806440000000     0.0960593  
C        C      0.754070000000     0.102120000000     0.920740000000     0.0960593  
C        C      0.832420000000     0.024280000000     0.812480000000     0.0960593  
C        C      0.199500000000     0.750000000000     0.428000000000     0.0960593  
C        C      0.156310000000     0.856200000000     0.468180000000     0.0960593  
C        C      0.102130000000     0.955460000000     0.431880000000     0.0960593  
C        C      0.063050000000     0.052120000000     0.470380000000     0.0960593  
C        C      0.997330000000     0.160520000000     0.433420000000     0.0960593  
C        C      0.083830000000     0.049400000000     0.543740000000     0.0960593  
C        C      0.141350000000     0.949660000000     0.580440000000     0.0960593  
C        C      0.162660000000     0.949620000000     0.659660000000     0.0960593  
C        C      0.172550000000     0.853320000000     0.542980000000     0.0960593  
C        C      0.618170000000     0.410720000000     0.421140000000     0.0960593  
C        C      0.642610000000     0.470940000000     0.306440000000     0.0960593  
C        C      0.106190000000     0.397880000000     0.420740000000     0.0960593  
C        C      0.106700000000     0.475720000000     0.312480000000     0.0960593  
C        C      0.377500000000     0.250000000000     0.572000000000     0.0960593  
C        C      0.480690000000     0.143800000000     0.531820000000     0.0960593  
C        C      0.489470000000     0.044540000000     0.568120000000     0.0960593  
C        C      0.585550000000     0.947880000000     0.529620000000     0.0960593  
C        C      0.591270000000     0.839480000000     0.566580000000     0.0960593  
C        C      0.676970000000     0.950600000000     0.456260000000     0.0960593  
C        C      0.671450000000     0.050340000000     0.419560000000     0.0960593  
C        C      0.771940000000     0.050380000000     0.340340000000     0.0960593  
C        C      0.568850000000     0.146680000000     0.457020000000     0.0960593  
C        C      0.450030000000     0.589280000000     0.578860000000     0.0960593  
C        C      0.419990000000     0.529060000000     0.693560000000     0.0960593  
C        C      0.924810000000     0.602120000000     0.579260000000     0.0960593  
C        C      0.894900000000     0.524280000000     0.687520000000     0.0960593  
N        N      0.089060000000     0.013800000000     0.158280000000    -0.139475   
N        N      0.148030000000     0.974280000000     0.083260000000    -0.139475   
N        N      0.327240000000     0.905180000000     0.146740000000    -0.139475   
N        N      0.773690000000     0.016620000000     0.153200000000    -0.139475   
N        N      0.843990000000     0.965180000000     0.082440000000    -0.139475   
N        N      0.665820000000     0.900900000000     0.143660000000    -0.139475   
N        N      0.261140000000     0.986200000000     0.841720000000    -0.139475   
N        N      0.205570000000     0.025720000000     0.916740000000    -0.139475   
N        N      0.379160000000     0.094820000000     0.853260000000    -0.139475   
N        N      0.943510000000     0.983380000000     0.846800000000    -0.139475   
N        N      0.891610000000     0.034820000000     0.917560000000    -0.139475   
N        N      0.710380000000     0.099100000000     0.856340000000    -0.139475   
N        N      0.497340000000     0.513800000000     0.341720000000    -0.139475   
N        N      0.481290000000     0.474280000000     0.416740000000    -0.139475   
N        N      0.723980000000     0.405180000000     0.353260000000    -0.139475   
N        N      0.176890000000     0.516620000000     0.346800000000    -0.139475   
N        N      0.176430000000     0.465180000000     0.417560000000    -0.139475   
N        N      0.059480000000     0.400900000000     0.356340000000    -0.139475   
N        N      0.352860000000     0.486200000000     0.658280000000    -0.139475   
N        N      0.372310000000     0.525720000000     0.583260000000    -0.139475   
N        N      0.482420000000     0.594820000000     0.646740000000    -0.139475   
N        N      0.040310000000     0.483380000000     0.653200000000    -0.139475   
N        N      0.059170000000     0.534820000000     0.582440000000    -0.139475   
N        N      0.816720000000     0.599100000000     0.643660000000    -0.139475   
O        O      0.917340000000     0.168360000000     0.031160000000    -0.273762   
O        O      0.839120000000     0.249840000000     0.146120000000    -0.273762   
O        O      0.635740000000     0.663100000000     0.140820000000    -0.273762   
O        O      0.643380000000     0.743220000000     0.026020000000    -0.273762   
O        O      0.094230000000     0.533580000000     0.813760000000    -0.273762   
O        O      0.133980000000     0.359160000000     0.801280000000    -0.273762   
O        O      0.116860000000     0.831640000000     0.968840000000    -0.273762   
O        O      0.235080000000     0.750160000000     0.853880000000    -0.273762   
O        O      0.439660000000     0.336900000000     0.859180000000    -0.273762   
O        O      0.412620000000     0.256780000000     0.973980000000    -0.273762   
O        O      0.441570000000     0.466420000000     0.186240000000    -0.273762   
O        O      0.294420000000     0.640840000000     0.198720000000    -0.273762   
O        O      0.198500000000     0.668360000000     0.468840000000    -0.273762   
O        O      0.235240000000     0.749840000000     0.353880000000    -0.273762   
O        O      0.026560000000     0.163100000000     0.359180000000    -0.273762   
O        O      0.919400000000     0.243220000000     0.473980000000    -0.273762   
O        O      0.157990000000     0.033580000000     0.686240000000    -0.273762   
O        O      0.185260000000     0.859160000000     0.698720000000    -0.273762   
O        O      0.335700000000     0.331640000000     0.531160000000    -0.273762   
O        O      0.338960000000     0.250160000000     0.646120000000    -0.273762   
O        O      0.548840000000     0.836900000000     0.640820000000    -0.273762   
O        O      0.636600000000     0.756780000000     0.526020000000    -0.273762   
O        O      0.877810000000     0.966420000000     0.313760000000    -0.273762   
O        O      0.743140000000     0.140840000000     0.301280000000    -0.273762   


