data_ANUGUM_original

_audit_creation_method RASPA-1.0
_audit_creation_date 2022-1-31
_audit_author_name 'Felipe Lopes de Oliveira <felipe.lopes.oliveira@ibm.com>'

_cell_length_a    11.8586
_cell_length_b    16.4885
_cell_length_c    17.4516
_cell_angle_alpha 89.6465
_cell_angle_beta  89.0169
_cell_angle_gamma 68.9242
_cell_volume      3183.59

_symmetry_cell_setting          triclinic
_symmetry_space_group_name_Hall 'P 1'
_symmetry_space_group_name_H-M  'P 1'
_symmetry_Int_Tables_number     1

_symmetry_equiv_pos_as_xyz 'x,y,z'

loop_
_atom_site_label
_atom_site_type_symbol
_atom_site_fract_x
_atom_site_fract_y
_atom_site_fract_z
_atom_site_charge
Zn       Zn     0.852710000000     0.130040000000     0.671420000000     0.519406   
Zn       Zn     0.017250000000     0.130040000000     0.828580000000     0.519406   
Zn       Zn     0.147290000000     0.869960000000     0.328580000000     0.519406   
Zn       Zn     0.982750000000     0.869960000000     0.171420000000     0.519406   
H        H      0.736500000000     0.932200000000     0.755700000000     0.06679    
H        H      0.889400000000     0.969400000000     0.950400000000     0.06679    
H        H      0.790000000000     0.675000000000     0.823200000000     0.06679    
H        H      0.762600000000     0.774800000000     0.936000000000     0.06679    
H        H      0.641300000000     0.545600000000     0.652800000000     0.06679    
H        H      0.727700000000     0.398600000000     0.647500000000     0.06679    
H        H      0.331300000000     0.932200000000     0.744300000000     0.06679    
H        H      0.141200000000     0.969400000000     0.549600000000     0.06679    
H        H      0.535000000000     0.675000000000     0.676800000000     0.06679    
H        H      0.462600000000     0.774800000000     0.564000000000     0.06679    
H        H      0.813100000000     0.545600000000     0.847200000000     0.06679    
H        H      0.873700000000     0.398600000000     0.852500000000     0.06679    
H        H      0.263500000000     0.067800000000     0.244300000000     0.06679    
H        H      0.110600000000     0.030600000000     0.049600000000     0.06679    
H        H      0.210000000000     0.325000000000     0.176800000000     0.06679    
H        H      0.237400000000     0.225200000000     0.064000000000     0.06679    
H        H      0.358700000000     0.454400000000     0.347200000000     0.06679    
H        H      0.272300000000     0.601400000000     0.352500000000     0.06679    
H        H      0.668700000000     0.067800000000     0.255700000000     0.06679    
H        H      0.858800000000     0.030600000000     0.450400000000     0.06679    
H        H      0.465000000000     0.325000000000     0.323200000000     0.06679    
H        H      0.537400000000     0.225200000000     0.436000000000     0.06679    
H        H      0.186900000000     0.454400000000     0.152800000000     0.06679    
H        H      0.126300000000     0.601400000000     0.147500000000     0.06679    
H        H      0.549700000000     0.900600000000     0.750000000000     0.06679    
H        H      0.450300000000     0.099400000000     0.250000000000     0.06679    
C        C      0.677310000000     0.797580000000     0.795100000000     0.036275   
C        C      0.815250000000     0.962300000000     0.847000000000     0.036275   
C        C      0.759530000000     0.916340000000     0.805900000000     0.036275   
C        C      0.851250000000     0.938500000000     0.923300000000     0.036275   
C        C      0.737570000000     0.846260000000     0.839200000000     0.036275   
C        C      0.723200000000     0.705600000000     0.794000000000     0.036275   
C        C      0.774450000000     0.822700000000     0.914000000000     0.036275   
C        C      0.846990000000     0.034220000000     0.808300000000     0.036275   
C        C      0.866520000000     0.845360000000     0.038300000000     0.036275   
C        C      0.830060000000     0.870080000000     0.957400000000     0.036275   
C        C      0.692740000000     0.516120000000     0.691600000000     0.036275   
C        C      0.740960000000     0.427880000000     0.689800000000     0.036275   
C        C      0.525110000000     0.797580000000     0.704900000000     0.036275   
C        C      0.222450000000     0.962300000000     0.653000000000     0.036275   
C        C      0.324130000000     0.916340000000     0.694100000000     0.036275   
C        C      0.210250000000     0.938500000000     0.576700000000     0.036275   
C        C      0.416170000000     0.846260000000     0.660800000000     0.036275   
C        C      0.571200000000     0.705600000000     0.706000000000     0.036275   
C        C      0.402850000000     0.822700000000     0.586000000000     0.036275   
C        C      0.118790000000     0.034220000000     0.691700000000     0.036275   
C        C      0.288120000000     0.845360000000     0.461700000000     0.036275   
C        C      0.299860000000     0.870080000000     0.542600000000     0.036275   
C        C      0.791140000000     0.516120000000     0.808400000000     0.036275   
C        C      0.831160000000     0.427880000000     0.810200000000     0.036275   
C        C      0.322690000000     0.202420000000     0.204900000000     0.036275   
C        C      0.184750000000     0.037700000000     0.153000000000     0.036275   
C        C      0.240470000000     0.083660000000     0.194100000000     0.036275   
C        C      0.148750000000     0.061500000000     0.076700000000     0.036275   
C        C      0.262430000000     0.153740000000     0.160800000000     0.036275   
C        C      0.276800000000     0.294400000000     0.206000000000     0.036275   
C        C      0.225550000000     0.177300000000     0.086000000000     0.036275   
C        C      0.153010000000     0.965780000000     0.191700000000     0.036275   
C        C      0.133480000000     0.154640000000     0.961700000000     0.036275   
C        C      0.169940000000     0.129920000000     0.042600000000     0.036275   
C        C      0.307260000000     0.483880000000     0.308400000000     0.036275   
C        C      0.259040000000     0.572120000000     0.310200000000     0.036275   
C        C      0.474890000000     0.202420000000     0.295100000000     0.036275   
C        C      0.777550000000     0.037700000000     0.347000000000     0.036275   
C        C      0.675870000000     0.083660000000     0.305900000000     0.036275   
C        C      0.789750000000     0.061500000000     0.423300000000     0.036275   
C        C      0.583830000000     0.153740000000     0.339200000000     0.036275   
C        C      0.428800000000     0.294400000000     0.294000000000     0.036275   
C        C      0.597150000000     0.177300000000     0.414000000000     0.036275   
C        C      0.881210000000     0.965780000000     0.308300000000     0.036275   
C        C      0.711880000000     0.154640000000     0.538300000000     0.036275   
C        C      0.700140000000     0.129920000000     0.457400000000     0.036275   
C        C      0.208860000000     0.483880000000     0.191600000000     0.036275   
C        C      0.168840000000     0.572120000000     0.189800000000     0.036275   
C        C      0.579900000000     0.840200000000     0.750000000000     0.036275   
C        C      0.718400000000     0.563200000000     0.750000000000     0.036275   
C        C      0.669500000000     0.661000000000     0.750000000000     0.036275   
C        C      0.858100000000     0.283800000000     0.750000000000     0.036275   
C        C      0.809900000000     0.380200000000     0.750000000000     0.036275   
C        C      0.420100000000     0.159800000000     0.250000000000     0.036275   
C        C      0.281600000000     0.436800000000     0.250000000000     0.036275   
C        C      0.330500000000     0.339000000000     0.250000000000     0.036275   
C        C      0.141900000000     0.716200000000     0.250000000000     0.036275   
C        C      0.190100000000     0.619800000000     0.250000000000     0.036275   
O        O      0.918430000000     0.889740000000     0.070480000000    -0.295906   
O        O      0.926170000000     0.247460000000     0.803590000000    -0.295906   
O        O      0.901370000000     0.071260000000     0.845650000000    -0.295906   
O        O      0.816890000000     0.049420000000     0.740280000000    -0.295906   
O        O      0.849360000000     0.783880000000     0.068500000000    -0.295906   
O        O      0.191830000000     0.889740000000     0.429520000000    -0.295906   
O        O      0.826370000000     0.247460000000     0.696410000000    -0.295906   
O        O      0.027370000000     0.071260000000     0.654350000000    -0.295906   
O        O      0.133690000000     0.049420000000     0.759720000000    -0.295906   
O        O      0.366760000000     0.783880000000     0.431500000000    -0.295906   
O        O      0.081570000000     0.110260000000     0.929520000000    -0.295906   
O        O      0.073830000000     0.752540000000     0.196410000000    -0.295906   
O        O      0.098630000000     0.928740000000     0.154350000000    -0.295906   
O        O      0.183110000000     0.950580000000     0.259720000000    -0.295906   
O        O      0.150640000000     0.216120000000     0.931500000000    -0.295906   
O        O      0.808170000000     0.110260000000     0.570480000000    -0.295906   
O        O      0.173630000000     0.752540000000     0.303590000000    -0.295906   
O        O      0.972630000000     0.928740000000     0.345650000000    -0.295906   
O        O      0.866310000000     0.950580000000     0.240280000000    -0.295906   
O        O      0.633240000000     0.216120000000     0.568500000000    -0.295906   


