data_ATOXEN_original

_audit_creation_method RASPA-1.0
_audit_creation_date 2022-1-31
_audit_author_name 'Felipe Lopes de Oliveira <felipe.lopes.oliveira@ibm.com>'

_cell_length_a    10.925
_cell_length_b    10.946
_cell_length_c    13.972
_cell_angle_alpha 95.2
_cell_angle_beta  99.23
_cell_angle_gamma 99.89
_cell_volume      1612.66

_symmetry_cell_setting          triclinic
_symmetry_space_group_name_Hall 'P 1'
_symmetry_space_group_name_H-M  'P 1'
_symmetry_Int_Tables_number     1

_symmetry_equiv_pos_as_xyz 'x,y,z'

loop_
_atom_site_label
_atom_site_type_symbol
_atom_site_fract_x
_atom_site_fract_y
_atom_site_fract_z
_atom_site_charge
Zn       Zn     0.342090000000     0.722680000000     0.886810000000     0.46075    
Zn       Zn     0.281870000000     0.681940000000     0.669840000000     0.46075    
Zn       Zn     0.657910000000     0.277320000000     0.113190000000     0.46075    
Zn       Zn     0.718130000000     0.318060000000     0.330160000000     0.46075    
H        H      0.271700000000     0.065500000000     0.638500000000     0.113147   
H        H      0.260000000000     0.279200000000     0.635100000000     0.113147   
H        H      0.360000000000     0.340100000000     0.924900000000     0.113147   
H        H      0.364200000000     0.129500000000     0.929500000000     0.113147   
H        H      0.864100000000     0.646500000000     0.624900000000     0.113147   
H        H      0.659400000000     0.672300000000     0.637100000000     0.113147   
H        H      0.758100000000     0.743100000000     0.926000000000     0.113147   
H        H      0.965300000000     0.731700000000     0.914200000000     0.113147   
H        H      0.364000000000     0.906000000000     0.065400000000     0.113147   
H        H      0.275400000000     0.536400000000     0.187000000000     0.113147   
H        H      0.298900000000     0.546000000000     0.027600000000     0.113147   
H        H      0.480200000000     0.760600000000     0.382000000000     0.113147   
H        H      0.467000000000     0.746900000000     0.544700000000     0.113147   
H        H      0.105300000000     0.644100000000     0.476700000000     0.113147   
H        H      0.432100000000     0.982000000000     0.291200000000     0.113147   
H        H      0.341700000000     0.024600000000     0.207200000000     0.113147   
H        H      0.286200000000     0.958500000000     0.290000000000     0.113147   
H        H      0.066800000000     0.604100000000     0.227200000000     0.113147   
H        H      0.994900000000     0.594800000000     0.315600000000     0.113147   
H        H      0.026900000000     0.723000000000     0.274800000000     0.113147   
H        H      0.728300000000     0.934500000000     0.361500000000     0.113147   
H        H      0.740000000000     0.720800000000     0.364900000000     0.113147   
H        H      0.640000000000     0.659900000000     0.075100000000     0.113147   
H        H      0.635800000000     0.870500000000     0.070500000000     0.113147   
H        H      0.135900000000     0.353500000000     0.375100000000     0.113147   
H        H      0.340600000000     0.327700000000     0.362900000000     0.113147   
H        H      0.241900000000     0.256900000000     0.074000000000     0.113147   
H        H      0.034700000000     0.268300000000     0.085800000000     0.113147   
H        H      0.636000000000     0.094000000000     0.934600000000     0.113147   
H        H      0.724600000000     0.463600000000     0.813000000000     0.113147   
H        H      0.701100000000     0.454000000000     0.972400000000     0.113147   
H        H      0.519800000000     0.239400000000     0.618000000000     0.113147   
H        H      0.533000000000     0.253100000000     0.455300000000     0.113147   
H        H      0.894700000000     0.355900000000     0.523300000000     0.113147   
H        H      0.567900000000     0.018000000000     0.708800000000     0.113147   
H        H      0.658300000000     0.975400000000     0.792800000000     0.113147   
H        H      0.713800000000     0.041500000000     0.710000000000     0.113147   
H        H      0.933200000000     0.395900000000     0.772800000000     0.113147   
H        H      0.005100000000     0.405200000000     0.684400000000     0.113147   
H        H      0.973100000000     0.277000000000     0.725200000000     0.113147   
C        C      0.325100000000     0.939400000000     0.787800000000    -0.0215115  
C        C      0.319000000000     0.078000000000     0.785700000000    -0.0215115  
C        C      0.287800000000     0.119800000000     0.696200000000    -0.0215115  
C        C      0.281100000000     0.249400000000     0.694600000000    -0.0215115  
C        C      0.304800000000     0.329000000000     0.778100000000    -0.0215115  
C        C      0.339700000000     0.285400000000     0.867400000000    -0.0215115  
C        C      0.344000000000     0.159000000000     0.869700000000    -0.0215115  
C        C      0.300700000000     0.465600000000     0.772800000000    -0.0215115  
C        C      0.071000000000     0.685400000000     0.759400000000    -0.0215115  
C        C      0.935700000000     0.691700000000     0.768900000000    -0.0215115  
C        C      0.844200000000     0.669600000000     0.685400000000    -0.0215115  
C        C      0.720300000000     0.682900000000     0.693400000000    -0.0215115  
C        C      0.687400000000     0.711000000000     0.782100000000    -0.0215115  
C        C      0.779400000000     0.726800000000     0.864900000000    -0.0215115  
C        C      0.903800000000     0.718700000000     0.858000000000    -0.0215115  
C        C      0.553000000000     0.717000000000     0.789900000000    -0.0215115  
C        C      0.347200000000     0.830500000000     0.090900000000    -0.0215115  
C        C      0.335400000000     0.832900000000     0.188900000000    -0.0215115  
C        C      0.307900000000     0.721100000000     0.226000000000    -0.0215115  
C        C      0.294300000000     0.613600000000     0.164600000000    -0.0215115  
C        C      0.308800000000     0.620400000000     0.068300000000    -0.0215115  
C        C      0.293900000000     0.714700000000     0.329400000000    -0.0215115  
C        C      0.401700000000     0.737600000000     0.399700000000    -0.0215115  
C        C      0.394100000000     0.726700000000     0.497400000000    -0.0215115  
C        C      0.182400000000     0.667300000000     0.457000000000    -0.0215115  
C        C      0.180800000000     0.677600000000     0.357500000000    -0.0215115  
C        C      0.350300000000     0.961800000000     0.250200000000    -0.0215115  
C        C      0.055900000000     0.647100000000     0.287300000000    -0.0215115  
C        C      0.674900000000     0.060600000000     0.212200000000    -0.0215115  
C        C      0.681000000000     0.922000000000     0.214300000000    -0.0215115  
C        C      0.712200000000     0.880200000000     0.303800000000    -0.0215115  
C        C      0.718900000000     0.750600000000     0.305400000000    -0.0215115  
C        C      0.695200000000     0.671000000000     0.221900000000    -0.0215115  
C        C      0.660300000000     0.714600000000     0.132600000000    -0.0215115  
C        C      0.656000000000     0.841000000000     0.130300000000    -0.0215115  
C        C      0.699300000000     0.534400000000     0.227200000000    -0.0215115  
C        C      0.929000000000     0.314600000000     0.240600000000    -0.0215115  
C        C      0.064300000000     0.308300000000     0.231100000000    -0.0215115  
C        C      0.155800000000     0.330400000000     0.314600000000    -0.0215115  
C        C      0.279700000000     0.317100000000     0.306600000000    -0.0215115  
C        C      0.312600000000     0.289000000000     0.217900000000    -0.0215115  
C        C      0.220600000000     0.273200000000     0.135100000000    -0.0215115  
C        C      0.096200000000     0.281300000000     0.142000000000    -0.0215115  
C        C      0.447000000000     0.283000000000     0.210100000000    -0.0215115  
C        C      0.652800000000     0.169500000000     0.909100000000    -0.0215115  
C        C      0.664600000000     0.167100000000     0.811100000000    -0.0215115  
C        C      0.692100000000     0.278900000000     0.774000000000    -0.0215115  
C        C      0.705700000000     0.386400000000     0.835400000000    -0.0215115  
C        C      0.691200000000     0.379600000000     0.931700000000    -0.0215115  
C        C      0.706100000000     0.285300000000     0.670600000000    -0.0215115  
C        C      0.598300000000     0.262400000000     0.600300000000    -0.0215115  
C        C      0.605900000000     0.273300000000     0.502600000000    -0.0215115  
C        C      0.817600000000     0.332700000000     0.543000000000    -0.0215115  
C        C      0.819200000000     0.322400000000     0.642500000000    -0.0215115  
C        C      0.649700000000     0.038200000000     0.749800000000    -0.0215115  
C        C      0.944100000000     0.352900000000     0.712700000000    -0.0215115  
N        N      0.335100000000     0.723900000000     0.031800000000    -0.123243   
N        N      0.283200000000     0.687600000000     0.523500000000    -0.123243   
N        N      0.664900000000     0.276100000000     0.968200000000    -0.123243   
N        N      0.716800000000     0.312400000000     0.476500000000    -0.123243   
O        O      0.302100000000     0.869400000000     0.706400000000    -0.291955   
O        O      0.352200000000     0.906400000000     0.871700000000    -0.291955   
O        O      0.325000000000     0.535600000000     0.853800000000    -0.291955   
O        O      0.270300000000     0.501600000000     0.691700000000    -0.291955   
O        O      0.096400000000     0.671200000000     0.674900000000    -0.291955   
O        O      0.148100000000     0.700200000000     0.838500000000    -0.291955   
O        O      0.474600000000     0.700600000000     0.711200000000    -0.291955   
O        O      0.528700000000     0.737600000000     0.874400000000    -0.291955   
O        O      0.697900000000     0.130600000000     0.293600000000    -0.291955   
O        O      0.647800000000     0.093600000000     0.128300000000    -0.291955   
O        O      0.675000000000     0.464400000000     0.146200000000    -0.291955   
O        O      0.729700000000     0.498400000000     0.308300000000    -0.291955   
O        O      0.903600000000     0.328800000000     0.325100000000    -0.291955   
O        O      0.851900000000     0.299800000000     0.161500000000    -0.291955   
O        O      0.525400000000     0.299400000000     0.288800000000    -0.291955   
O        O      0.471300000000     0.262400000000     0.125600000000    -0.291955   


