data_AVIMOI_original

_audit_creation_method RASPA-1.0
_audit_creation_date 2022-1-28
_audit_author_name 'Felipe Lopes de Oliveira <felipe.lopes.oliveira@ibm.com>'

_cell_length_a    9.3243
_cell_length_b    14.4535
_cell_length_c    26.939
_cell_angle_alpha 90
_cell_angle_beta  90
_cell_angle_gamma 93.068
_cell_volume      3625.33

_symmetry_cell_setting          triclinic
_symmetry_space_group_name_Hall 'P 1'
_symmetry_space_group_name_H-M  'P 1'
_symmetry_Int_Tables_number     1

_symmetry_equiv_pos_as_xyz 'x,y,z'

loop_
_atom_site_label
_atom_site_type_symbol
_atom_site_fract_x
_atom_site_fract_y
_atom_site_fract_z
_atom_site_charge
Zn       Zn     0.647650000000     0.121810000000     0.320960000000     0.456241   
Zn       Zn     0.967670000000     0.111930000000     0.379600000000     0.456241   
Zn       Zn     0.352350000000     0.378190000000     0.820960000000     0.456241   
Zn       Zn     0.032330000000     0.388070000000     0.879600000000     0.456241   
Zn       Zn     0.352350000000     0.878190000000     0.679040000000     0.456241   
Zn       Zn     0.032330000000     0.888070000000     0.620400000000     0.456241   
Zn       Zn     0.647650000000     0.621810000000     0.179040000000     0.456241   
Zn       Zn     0.967670000000     0.611930000000     0.120400000000     0.456241   
H        H      0.104100000000     0.347200000000     0.364900000000     0.0715929  
H        H      0.160800000000     0.560700000000     0.269200000000     0.0715929  
H        H      0.807800000000     0.388000000000     0.260300000000     0.0715929  
H        H      0.336700000000     0.372100000000     0.371800000000     0.0715929  
H        H      0.259800000000     0.436300000000     0.409600000000     0.0715929  
H        H      0.603100000000     0.394400000000     0.361200000000     0.0715929  
H        H      0.813900000000     0.465000000000     0.389400000000     0.0715929  
H        H      0.607100000000     0.652400000000     0.467600000000     0.0715929  
H        H      0.411800000000     0.550200000000     0.456300000000     0.0715929  
H        H      0.004700000000     0.521600000000     0.415900000000     0.0715929  
H        H      0.204000000000     0.617200000000     0.433100000000     0.0715929  
H        H      0.001100000000     0.764400000000     0.531300000000     0.0715929  
H        H      0.789400000000     0.693500000000     0.503000000000     0.0715929  
H        H      0.256200000000     0.760000000000     0.542700000000     0.0715929  
H        H      0.341300000000     0.683500000000     0.515500000000     0.0715929  
H        H      0.443400000000     0.915000000000     0.418700000000     0.0715929  
H        H      0.809100000000     0.968000000000     0.493800000000     0.0715929  
H        H      0.510700000000     0.781500000000     0.545400000000     0.0715929  
H        H      0.895900000000     0.152800000000     0.864900000000     0.0715929  
H        H      0.839200000000     0.939300000000     0.769200000000     0.0715929  
H        H      0.192200000000     0.112000000000     0.760300000000     0.0715929  
H        H      0.663300000000     0.127900000000     0.871800000000     0.0715929  
H        H      0.740200000000     0.063700000000     0.909600000000     0.0715929  
H        H      0.396900000000     0.105600000000     0.861200000000     0.0715929  
H        H      0.186100000000     0.035000000000     0.889400000000     0.0715929  
H        H      0.392900000000     0.847600000000     0.967600000000     0.0715929  
H        H      0.588200000000     0.949800000000     0.956300000000     0.0715929  
H        H      0.995300000000     0.978400000000     0.915900000000     0.0715929  
H        H      0.796000000000     0.882800000000     0.933100000000     0.0715929  
H        H      0.998900000000     0.735600000000     0.031300000000     0.0715929  
H        H      0.210600000000     0.806500000000     0.003000000000     0.0715929  
H        H      0.743800000000     0.740000000000     0.042700000000     0.0715929  
H        H      0.658700000000     0.816500000000     0.015500000000     0.0715929  
H        H      0.556600000000     0.585000000000     0.918700000000     0.0715929  
H        H      0.190900000000     0.532000000000     0.993800000000     0.0715929  
H        H      0.489300000000     0.718500000000     0.045400000000     0.0715929  
H        H      0.895900000000     0.652800000000     0.635100000000     0.0715929  
H        H      0.839200000000     0.439300000000     0.730800000000     0.0715929  
H        H      0.192200000000     0.612000000000     0.739700000000     0.0715929  
H        H      0.663300000000     0.627900000000     0.628200000000     0.0715929  
H        H      0.740200000000     0.563700000000     0.590400000000     0.0715929  
H        H      0.396900000000     0.605600000000     0.638800000000     0.0715929  
H        H      0.186100000000     0.535000000000     0.610600000000     0.0715929  
H        H      0.392900000000     0.347600000000     0.532400000000     0.0715929  
H        H      0.588200000000     0.449800000000     0.543700000000     0.0715929  
H        H      0.995300000000     0.478400000000     0.584100000000     0.0715929  
H        H      0.796000000000     0.382800000000     0.566900000000     0.0715929  
H        H      0.998900000000     0.235600000000     0.468700000000     0.0715929  
H        H      0.210600000000     0.306500000000     0.497000000000     0.0715929  
H        H      0.743800000000     0.240000000000     0.457300000000     0.0715929  
H        H      0.658700000000     0.316500000000     0.484500000000     0.0715929  
H        H      0.556600000000     0.085000000000     0.581300000000     0.0715929  
H        H      0.190900000000     0.032000000000     0.506200000000     0.0715929  
H        H      0.489300000000     0.218500000000     0.454600000000     0.0715929  
H        H      0.104100000000     0.847200000000     0.135100000000     0.0715929  
H        H      0.160800000000     0.060700000000     0.230800000000     0.0715929  
H        H      0.807800000000     0.888000000000     0.239700000000     0.0715929  
H        H      0.336700000000     0.872100000000     0.128200000000     0.0715929  
H        H      0.259800000000     0.936300000000     0.090400000000     0.0715929  
H        H      0.603100000000     0.894400000000     0.138800000000     0.0715929  
H        H      0.813900000000     0.965000000000     0.110600000000     0.0715929  
H        H      0.607100000000     0.152400000000     0.032400000000     0.0715929  
H        H      0.411800000000     0.050200000000     0.043700000000     0.0715929  
H        H      0.004700000000     0.021600000000     0.084100000000     0.0715929  
H        H      0.204000000000     0.117200000000     0.066900000000     0.0715929  
H        H      0.001100000000     0.264400000000     0.968700000000     0.0715929  
H        H      0.789400000000     0.193500000000     0.997000000000     0.0715929  
H        H      0.256200000000     0.260000000000     0.957300000000     0.0715929  
H        H      0.341300000000     0.183500000000     0.984500000000     0.0715929  
H        H      0.443400000000     0.415000000000     0.081300000000     0.0715929  
H        H      0.809100000000     0.468000000000     0.006200000000     0.0715929  
H        H      0.510700000000     0.281500000000     0.954600000000     0.0715929  
C        C      0.944400000000     0.354900000000     0.315500000000     0.017734   
C        C      0.071700000000     0.381100000000     0.338190000000     0.017734   
C        C      0.152000000000     0.458300000000     0.321390000000     0.017734   
C        C      0.106300000000     0.509400000000     0.280720000000     0.017734   
C        C      0.977000000000     0.481200000000     0.258020000000     0.017734   
C        C      0.895000000000     0.405300000000     0.275290000000     0.017734   
C        C      0.866900000000     0.268100000000     0.331510000000     0.017734   
C        C      0.923600000000     0.532600000000     0.213640000000     0.017734   
C        C      0.328100000000     0.435700000000     0.382470000000     0.017734   
C        C      0.473500000000     0.477600000000     0.399070000000     0.017734   
C        C      0.601600000000     0.444100000000     0.383070000000     0.017734   
C        C      0.728200000000     0.487300000000     0.400710000000     0.017734   
C        C      0.737700000000     0.561100000000     0.433890000000     0.017734   
C        C      0.611100000000     0.597300000000     0.449950000000     0.017734   
C        C      0.492600000000     0.542600000000     0.436810000000     0.017734   
C        C      0.874600000000     0.605900000000     0.454570000000     0.017734   
C        C      0.001200000000     0.573300000000     0.436290000000     0.017734   
C        C      0.121000000000     0.625100000000     0.451430000000     0.017734   
C        C      0.134600000000     0.688700000000     0.491010000000     0.017734   
C        C      0.003700000000     0.717100000000     0.508030000000     0.017734   
C        C      0.876200000000     0.674900000000     0.490380000000     0.017734   
C        C      0.271900000000     0.730500000000     0.511020000000     0.017734   
C        C      0.452800000000     0.842800000000     0.483290000000     0.017734   
C        C      0.500300000000     0.905300000000     0.446340000000     0.017734   
C        C      0.632800000000     0.952600000000     0.451310000000     0.017734   
C        C      0.719300000000     0.937000000000     0.491450000000     0.017734   
C        C      0.673400000000     0.875000000000     0.528770000000     0.017734   
C        C      0.540000000000     0.826400000000     0.522260000000     0.017734   
C        C      0.686600000000     0.017800000000     0.411900000000     0.017734   
C        C      0.766600000000     0.858400000000     0.571090000000     0.017734   
C        C      0.055600000000     0.145100000000     0.815500000000     0.017734   
C        C      0.928300000000     0.118900000000     0.838190000000     0.017734   
C        C      0.848000000000     0.041700000000     0.821390000000     0.017734   
C        C      0.893700000000     0.990600000000     0.780720000000     0.017734   
C        C      0.023000000000     0.018800000000     0.758020000000     0.017734   
C        C      0.105000000000     0.094700000000     0.775290000000     0.017734   
C        C      0.133100000000     0.231900000000     0.831510000000     0.017734   
C        C      0.076400000000     0.967400000000     0.713640000000     0.017734   
C        C      0.671900000000     0.064300000000     0.882470000000     0.017734   
C        C      0.526500000000     0.022400000000     0.899070000000     0.017734   
C        C      0.398400000000     0.055900000000     0.883070000000     0.017734   
C        C      0.271800000000     0.012700000000     0.900710000000     0.017734   
C        C      0.262300000000     0.938900000000     0.933890000000     0.017734   
C        C      0.388900000000     0.902700000000     0.949950000000     0.017734   
C        C      0.507400000000     0.957400000000     0.936810000000     0.017734   
C        C      0.125400000000     0.894100000000     0.954570000000     0.017734   
C        C      0.998800000000     0.926700000000     0.936290000000     0.017734   
C        C      0.879000000000     0.874900000000     0.951430000000     0.017734   
C        C      0.865400000000     0.811300000000     0.991010000000     0.017734   
C        C      0.996300000000     0.782900000000     0.008030000000     0.017734   
C        C      0.123800000000     0.825100000000     0.990380000000     0.017734   
C        C      0.728100000000     0.769500000000     0.011020000000     0.017734   
C        C      0.547200000000     0.657200000000     0.983290000000     0.017734   
C        C      0.499700000000     0.594700000000     0.946340000000     0.017734   
C        C      0.367200000000     0.547400000000     0.951310000000     0.017734   
C        C      0.280700000000     0.563000000000     0.991450000000     0.017734   
C        C      0.326600000000     0.625000000000     0.028770000000     0.017734   
C        C      0.460000000000     0.673600000000     0.022260000000     0.017734   
C        C      0.313400000000     0.482200000000     0.911900000000     0.017734   
C        C      0.233400000000     0.641600000000     0.071090000000     0.017734   
C        C      0.055600000000     0.645100000000     0.684500000000     0.017734   
C        C      0.928300000000     0.618900000000     0.661810000000     0.017734   
C        C      0.848000000000     0.541700000000     0.678610000000     0.017734   
C        C      0.893700000000     0.490600000000     0.719280000000     0.017734   
C        C      0.023000000000     0.518800000000     0.741980000000     0.017734   
C        C      0.105000000000     0.594700000000     0.724710000000     0.017734   
C        C      0.133100000000     0.731900000000     0.668490000000     0.017734   
C        C      0.076400000000     0.467400000000     0.786360000000     0.017734   
C        C      0.671900000000     0.564300000000     0.617530000000     0.017734   
C        C      0.526500000000     0.522400000000     0.600930000000     0.017734   
C        C      0.398400000000     0.555900000000     0.616930000000     0.017734   
C        C      0.271800000000     0.512700000000     0.599290000000     0.017734   
C        C      0.262300000000     0.438900000000     0.566110000000     0.017734   
C        C      0.388900000000     0.402700000000     0.550050000000     0.017734   
C        C      0.507400000000     0.457400000000     0.563190000000     0.017734   
C        C      0.125400000000     0.394100000000     0.545430000000     0.017734   
C        C      0.998800000000     0.426700000000     0.563710000000     0.017734   
C        C      0.879000000000     0.374900000000     0.548570000000     0.017734   
C        C      0.865400000000     0.311300000000     0.508990000000     0.017734   
C        C      0.996300000000     0.282900000000     0.491970000000     0.017734   
C        C      0.123800000000     0.325100000000     0.509620000000     0.017734   
C        C      0.728100000000     0.269500000000     0.488980000000     0.017734   
C        C      0.547200000000     0.157200000000     0.516710000000     0.017734   
C        C      0.499700000000     0.094700000000     0.553660000000     0.017734   
C        C      0.367200000000     0.047400000000     0.548690000000     0.017734   
C        C      0.280700000000     0.063000000000     0.508550000000     0.017734   
C        C      0.326600000000     0.125000000000     0.471230000000     0.017734   
C        C      0.460000000000     0.173600000000     0.477740000000     0.017734   
C        C      0.313400000000     0.982200000000     0.588100000000     0.017734   
C        C      0.233400000000     0.141600000000     0.428910000000     0.017734   
C        C      0.944400000000     0.854900000000     0.184500000000     0.017734   
C        C      0.071700000000     0.881100000000     0.161810000000     0.017734   
C        C      0.152000000000     0.958300000000     0.178610000000     0.017734   
C        C      0.106300000000     0.009400000000     0.219280000000     0.017734   
C        C      0.977000000000     0.981200000000     0.241980000000     0.017734   
C        C      0.895000000000     0.905300000000     0.224710000000     0.017734   
C        C      0.866900000000     0.768100000000     0.168490000000     0.017734   
C        C      0.923600000000     0.032600000000     0.286360000000     0.017734   
C        C      0.328100000000     0.935700000000     0.117530000000     0.017734   
C        C      0.473500000000     0.977600000000     0.100930000000     0.017734   
C        C      0.601600000000     0.944100000000     0.116930000000     0.017734   
C        C      0.728200000000     0.987300000000     0.099290000000     0.017734   
C        C      0.737700000000     0.061100000000     0.066110000000     0.017734   
C        C      0.611100000000     0.097300000000     0.050050000000     0.017734   
C        C      0.492600000000     0.042600000000     0.063190000000     0.017734   
C        C      0.874600000000     0.105900000000     0.045430000000     0.017734   
C        C      0.001200000000     0.073300000000     0.063710000000     0.017734   
C        C      0.121000000000     0.125100000000     0.048570000000     0.017734   
C        C      0.134600000000     0.188700000000     0.008990000000     0.017734   
C        C      0.003700000000     0.217100000000     0.991970000000     0.017734   
C        C      0.876200000000     0.174900000000     0.009620000000     0.017734   
C        C      0.271900000000     0.230500000000     0.988980000000     0.017734   
C        C      0.452800000000     0.342800000000     0.016710000000     0.017734   
C        C      0.500300000000     0.405300000000     0.053660000000     0.017734   
C        C      0.632800000000     0.452600000000     0.048690000000     0.017734   
C        C      0.719300000000     0.437000000000     0.008550000000     0.017734   
C        C      0.673400000000     0.375000000000     0.971230000000     0.017734   
C        C      0.540000000000     0.326400000000     0.977740000000     0.017734   
C        C      0.686600000000     0.517800000000     0.088100000000     0.017734   
C        C      0.766600000000     0.358400000000     0.928910000000     0.017734   
O        O      0.771400000000     0.232870000000     0.303290000000    -0.273318   
O        O      0.900100000000     0.236810000000     0.371840000000    -0.273318   
O        O      0.281900000000     0.489990000000     0.342760000000    -0.273318   
O        O      0.323000000000     0.799060000000     0.474030000000    -0.273318   
O        O      0.733100000000     0.801300000000     0.605220000000    -0.273318   
O        O      0.888500000000     0.903410000000     0.571310000000    -0.273318   
O        O      0.815800000000     0.040500000000     0.414160000000    -0.273318   
O        O      0.793200000000     0.529450000000     0.205320000000    -0.273318   
O        O      0.021700000000     0.572040000000     0.186050000000    -0.273318   
O        O      0.600200000000     0.045580000000     0.379950000000    -0.273318   
O        O      0.228600000000     0.267130000000     0.803290000000    -0.273318   
O        O      0.099900000000     0.263190000000     0.871840000000    -0.273318   
O        O      0.718100000000     0.010010000000     0.842760000000    -0.273318   
O        O      0.677000000000     0.700940000000     0.974030000000    -0.273318   
O        O      0.266900000000     0.698700000000     0.105220000000    -0.273318   
O        O      0.111500000000     0.596590000000     0.071310000000    -0.273318   
O        O      0.184200000000     0.459500000000     0.914160000000    -0.273318   
O        O      0.206800000000     0.970550000000     0.705320000000    -0.273318   
O        O      0.978300000000     0.927960000000     0.686050000000    -0.273318   
O        O      0.399800000000     0.454420000000     0.879950000000    -0.273318   
O        O      0.228600000000     0.767130000000     0.696710000000    -0.273318   
O        O      0.099900000000     0.763190000000     0.628160000000    -0.273318   
O        O      0.718100000000     0.510010000000     0.657240000000    -0.273318   
O        O      0.677000000000     0.200940000000     0.525970000000    -0.273318   
O        O      0.266900000000     0.198700000000     0.394780000000    -0.273318   
O        O      0.111500000000     0.096590000000     0.428690000000    -0.273318   
O        O      0.184200000000     0.959500000000     0.585840000000    -0.273318   
O        O      0.206800000000     0.470550000000     0.794680000000    -0.273318   
O        O      0.978300000000     0.427960000000     0.813950000000    -0.273318   
O        O      0.399800000000     0.954420000000     0.620050000000    -0.273318   
O        O      0.771400000000     0.732870000000     0.196710000000    -0.273318   
O        O      0.900100000000     0.736810000000     0.128160000000    -0.273318   
O        O      0.281900000000     0.989990000000     0.157240000000    -0.273318   
O        O      0.323000000000     0.299060000000     0.025970000000    -0.273318   
O        O      0.733100000000     0.301300000000     0.894780000000    -0.273318   
O        O      0.888500000000     0.403410000000     0.928690000000    -0.273318   
O        O      0.815800000000     0.540500000000     0.085840000000    -0.273318   
O        O      0.793200000000     0.029450000000     0.294680000000    -0.273318   
O        O      0.021700000000     0.072040000000     0.313950000000    -0.273318   
O        O      0.600200000000     0.545580000000     0.120050000000    -0.273318   


