data_AXOCEW_original

_audit_creation_method RASPA-1.0
_audit_creation_date 2022-2-1
_audit_author_name 'Felipe Lopes de Oliveira <felipe.lopes.oliveira@ibm.com>'

_cell_length_a    7.292
_cell_length_b    18.82
_cell_length_c    20.5186
_cell_angle_alpha 106.983
_cell_angle_beta  90
_cell_angle_gamma 90
_cell_volume      2693.08

_symmetry_cell_setting          triclinic
_symmetry_space_group_name_Hall 'P 1'
_symmetry_space_group_name_H-M  'P 1'
_symmetry_Int_Tables_number     1

_symmetry_equiv_pos_as_xyz 'x,y,z'

loop_
_atom_site_label
_atom_site_type_symbol
_atom_site_fract_x
_atom_site_fract_y
_atom_site_fract_z
_atom_site_charge
Zn       Zn     0.646210000000     0.527650000000     0.977760000000     0.493073   
Zn       Zn     0.646210000000     0.972350000000     0.522240000000     0.493073   
Zn       Zn     0.353790000000     0.472350000000     0.022240000000     0.493073   
Zn       Zn     0.353790000000     0.027650000000     0.477760000000     0.493073   
H        H      0.968200000000     0.587800000000     0.162700000000     0.123269   
H        H      0.092800000000     0.608700000000     0.271400000000     0.123269   
H        H      0.625000000000     0.541500000000     0.338600000000     0.123269   
H        H      0.497100000000     0.524200000000     0.230600000000     0.123269   
H        H      0.864100000000     0.719000000000     0.381700000000     0.123269   
H        H      0.000700000000     0.834400000000     0.418600000000     0.123269   
H        H      0.443400000000     0.744600000000     0.475900000000     0.123269   
H        H      0.302900000000     0.629400000000     0.444800000000     0.123269   
H        H      0.968200000000     0.912200000000     0.337300000000     0.123269   
H        H      0.092800000000     0.891300000000     0.228600000000     0.123269   
H        H      0.625000000000     0.958500000000     0.161400000000     0.123269   
H        H      0.497100000000     0.975800000000     0.269400000000     0.123269   
H        H      0.864100000000     0.781000000000     0.118300000000     0.123269   
H        H      0.000700000000     0.665600000000     0.081400000000     0.123269   
H        H      0.443400000000     0.755400000000     0.024100000000     0.123269   
H        H      0.302900000000     0.870600000000     0.055200000000     0.123269   
H        H      0.031800000000     0.412200000000     0.837300000000     0.123269   
H        H      0.907200000000     0.391300000000     0.728600000000     0.123269   
H        H      0.375000000000     0.458500000000     0.661400000000     0.123269   
H        H      0.502900000000     0.475800000000     0.769400000000     0.123269   
H        H      0.135900000000     0.281000000000     0.618300000000     0.123269   
H        H      0.999300000000     0.165600000000     0.581400000000     0.123269   
H        H      0.556600000000     0.255400000000     0.524100000000     0.123269   
H        H      0.697100000000     0.370600000000     0.555200000000     0.123269   
H        H      0.031800000000     0.087800000000     0.662700000000     0.123269   
H        H      0.907200000000     0.108700000000     0.771400000000     0.123269   
H        H      0.375000000000     0.041500000000     0.838600000000     0.123269   
H        H      0.502900000000     0.024200000000     0.730600000000     0.123269   
H        H      0.135900000000     0.219000000000     0.881700000000     0.123269   
H        H      0.999300000000     0.334400000000     0.918600000000     0.123269   
H        H      0.556600000000     0.244600000000     0.975900000000     0.123269   
H        H      0.697100000000     0.129400000000     0.944800000000     0.123269   
C        C      0.638400000000     0.537100000000     0.116200000000     0.129927   
C        C      0.719500000000     0.554100000000     0.186900000000     0.129927   
C        C      0.899300000000     0.579000000000     0.197700000000     0.129927   
C        C      0.973900000000     0.590500000000     0.262900000000     0.129927   
C        C      0.874800000000     0.575500000000     0.315300000000     0.129927   
C        C      0.693900000000     0.550800000000     0.303800000000     0.129927   
C        C      0.617600000000     0.540400000000     0.238800000000     0.129927   
C        C      0.972600000000     0.584300000000     0.384000000000     0.129927   
C        C      0.844000000000     0.582900000000     0.442500000000     0.129927   
C        C      0.107800000000     0.519000000000     0.372100000000     0.129927   
C        C      0.071900000000     0.660700000000     0.407600000000     0.129927   
C        C      0.980800000000     0.723700000000     0.400800000000     0.129927   
C        C      0.063600000000     0.792800000000     0.422500000000     0.129927   
C        C      0.237500000000     0.801000000000     0.449600000000     0.129927   
C        C      0.326100000000     0.739600000000     0.457300000000     0.129927   
C        C      0.242700000000     0.670100000000     0.437600000000     0.129927   
C        C      0.327600000000     0.876600000000     0.470500000000     0.129927   
C        C      0.638400000000     0.962900000000     0.383800000000     0.129927   
C        C      0.719500000000     0.945900000000     0.313100000000     0.129927   
C        C      0.899300000000     0.921000000000     0.302300000000     0.129927   
C        C      0.973900000000     0.909500000000     0.237100000000     0.129927   
C        C      0.874800000000     0.924500000000     0.184700000000     0.129927   
C        C      0.693900000000     0.949200000000     0.196200000000     0.129927   
C        C      0.617600000000     0.959600000000     0.261200000000     0.129927   
C        C      0.972600000000     0.915700000000     0.116000000000     0.129927   
C        C      0.844000000000     0.917100000000     0.057500000000     0.129927   
C        C      0.107800000000     0.981000000000     0.127900000000     0.129927   
C        C      0.071900000000     0.839300000000     0.092400000000     0.129927   
C        C      0.980800000000     0.776300000000     0.099200000000     0.129927   
C        C      0.063600000000     0.707200000000     0.077500000000     0.129927   
C        C      0.237500000000     0.699000000000     0.050400000000     0.129927   
C        C      0.326100000000     0.760400000000     0.042700000000     0.129927   
C        C      0.242700000000     0.829900000000     0.062400000000     0.129927   
C        C      0.327600000000     0.623400000000     0.029500000000     0.129927   
C        C      0.361600000000     0.462900000000     0.883800000000     0.129927   
C        C      0.280500000000     0.445900000000     0.813100000000     0.129927   
C        C      0.100700000000     0.421000000000     0.802300000000     0.129927   
C        C      0.026100000000     0.409500000000     0.737100000000     0.129927   
C        C      0.125200000000     0.424500000000     0.684700000000     0.129927   
C        C      0.306100000000     0.449200000000     0.696200000000     0.129927   
C        C      0.382400000000     0.459600000000     0.761200000000     0.129927   
C        C      0.027400000000     0.415700000000     0.616000000000     0.129927   
C        C      0.156000000000     0.417100000000     0.557500000000     0.129927   
C        C      0.892200000000     0.481000000000     0.627900000000     0.129927   
C        C      0.928100000000     0.339300000000     0.592400000000     0.129927   
C        C      0.019200000000     0.276300000000     0.599200000000     0.129927   
C        C      0.936400000000     0.207200000000     0.577500000000     0.129927   
C        C      0.762500000000     0.199000000000     0.550400000000     0.129927   
C        C      0.673900000000     0.260400000000     0.542700000000     0.129927   
C        C      0.757300000000     0.329900000000     0.562400000000     0.129927   
C        C      0.672400000000     0.123400000000     0.529500000000     0.129927   
C        C      0.361600000000     0.037100000000     0.616200000000     0.129927   
C        C      0.280500000000     0.054100000000     0.686900000000     0.129927   
C        C      0.100700000000     0.079000000000     0.697700000000     0.129927   
C        C      0.026100000000     0.090500000000     0.762900000000     0.129927   
C        C      0.125200000000     0.075500000000     0.815300000000     0.129927   
C        C      0.306100000000     0.050800000000     0.803800000000     0.129927   
C        C      0.382400000000     0.040400000000     0.738800000000     0.129927   
C        C      0.027400000000     0.084300000000     0.884000000000     0.129927   
C        C      0.156000000000     0.082900000000     0.942500000000     0.129927   
C        C      0.892200000000     0.019000000000     0.872100000000     0.129927   
C        C      0.928100000000     0.160700000000     0.907600000000     0.129927   
C        C      0.019200000000     0.223700000000     0.900800000000     0.129927   
C        C      0.936400000000     0.292800000000     0.922500000000     0.129927   
C        C      0.762500000000     0.301000000000     0.949600000000     0.129927   
C        C      0.673900000000     0.239600000000     0.957300000000     0.129927   
C        C      0.757300000000     0.170100000000     0.937600000000     0.129927   
C        C      0.672400000000     0.376600000000     0.970500000000     0.129927   
O        O      0.728100000000     0.554100000000     0.072000000000    -0.292733   
O        O      0.483900000000     0.505700000000     0.108700000000    -0.292733   
O        O      0.484700000000     0.881500000000     0.496800000000    -0.292733   
O        O      0.242500000000     0.929500000000     0.458100000000    -0.292733   
O        O      0.728100000000     0.945900000000     0.428000000000    -0.292733   
O        O      0.483900000000     0.994300000000     0.391300000000    -0.292733   
O        O      0.484700000000     0.618500000000     0.003200000000    -0.292733   
O        O      0.242500000000     0.570500000000     0.041900000000    -0.292733   
O        O      0.271900000000     0.445900000000     0.928000000000    -0.292733   
O        O      0.516100000000     0.494300000000     0.891300000000    -0.292733   
O        O      0.515300000000     0.118500000000     0.503200000000    -0.292733   
O        O      0.757500000000     0.070500000000     0.541900000000    -0.292733   
O        O      0.271900000000     0.054100000000     0.572000000000    -0.292733   
O        O      0.516100000000     0.005700000000     0.608700000000    -0.292733   
O        O      0.515300000000     0.381500000000     0.996800000000    -0.292733   
O        O      0.757500000000     0.429500000000     0.958100000000    -0.292733   
F        F      0.767300000000     0.515300000000     0.433000000000    -0.419509   
F        F      0.927800000000     0.600500000000     0.502800000000    -0.419509   
F        F      0.705700000000     0.630900000000     0.448400000000    -0.419509   
F        F      0.182000000000     0.511300000000     0.429200000000    -0.419509   
F        F      0.248300000000     0.524100000000     0.331200000000    -0.419509   
F        F      0.025100000000     0.454100000000     0.340800000000    -0.419509   
F        F      0.767300000000     0.984700000000     0.067000000000    -0.419509   
F        F      0.927800000000     0.899500000000     0.997200000000    -0.419509   
F        F      0.705700000000     0.869100000000     0.051600000000    -0.419509   
F        F      0.182000000000     0.988700000000     0.070800000000    -0.419509   
F        F      0.248300000000     0.975900000000     0.168800000000    -0.419509   
F        F      0.025100000000     0.045900000000     0.159200000000    -0.419509   
F        F      0.232700000000     0.484700000000     0.567000000000    -0.419509   
F        F      0.072200000000     0.399500000000     0.497200000000    -0.419509   
F        F      0.294300000000     0.369100000000     0.551600000000    -0.419509   
F        F      0.818000000000     0.488700000000     0.570800000000    -0.419509   
F        F      0.751700000000     0.475900000000     0.668800000000    -0.419509   
F        F      0.974900000000     0.545900000000     0.659200000000    -0.419509   
F        F      0.232700000000     0.015300000000     0.933000000000    -0.419509   
F        F      0.072200000000     0.100500000000     0.002800000000    -0.419509   
F        F      0.294300000000     0.130900000000     0.948400000000    -0.419509   
F        F      0.818000000000     0.011300000000     0.929200000000    -0.419509   
F        F      0.751700000000     0.024100000000     0.831200000000    -0.419509   
F        F      0.974900000000     0.954100000000     0.840800000000    -0.419509   


