data_AXUBAW_original

_audit_creation_method RASPA-1.0
_audit_creation_date 2022-1-29
_audit_author_name 'Felipe Lopes de Oliveira <felipe.lopes.oliveira@ibm.com>'

_cell_length_a    18.1115
_cell_length_b    18.1115
_cell_length_c    18.1115
_cell_angle_alpha 60
_cell_angle_beta  60
_cell_angle_gamma 60
_cell_volume      4200.96

_symmetry_cell_setting          triclinic
_symmetry_space_group_name_Hall 'P 1'
_symmetry_space_group_name_H-M  'P 1'
_symmetry_Int_Tables_number     1

_symmetry_equiv_pos_as_xyz 'x,y,z'

loop_
_atom_site_label
_atom_site_type_symbol
_atom_site_fract_x
_atom_site_fract_y
_atom_site_fract_z
_atom_site_charge
Zn       Zn     0.118750000000     0.293750000000     0.293750000000     0.476584   
Zn       Zn     0.293740000000     0.118760000000     0.293750000000     0.476584   
Zn       Zn     0.293740000000     0.293750000000     0.118760000000     0.476584   
Zn       Zn     0.293740000000     0.293750000000     0.293750000000     0.476584   
Zn       Zn     0.706260000000     0.881240000000     0.706250000000     0.476584   
Zn       Zn     0.881250000000     0.706250000000     0.706250000000     0.476584   
Zn       Zn     0.706260000000     0.706250000000     0.881240000000     0.476584   
Zn       Zn     0.706260000000     0.706250000000     0.706250000000     0.476584   
H        H      0.994420000000     0.629390000000     0.282030000000     0.0611818  
H        H      0.097680000000     0.528140000000     0.270680000000     0.0611818  
H        H      0.100180000000     0.623800000000     0.281400000000     0.0611818  
H        H      0.632890000000     0.090030000000     0.994660000000     0.0611818  
H        H      0.619950000000     0.995110000000     0.103970000000     0.0611818  
H        H      0.528480000000     0.107150000000     0.093650000000     0.0611818  
H        H      0.279950000000     0.997290000000     0.111890000000     0.0611818  
H        H      0.283240000000     0.080310000000     0.996270000000     0.0611818  
H        H      0.270920000000     0.114690000000     0.084120000000     0.0611818  
H        H      0.050610000000     0.272630000000     0.545540000000     0.0611818  
H        H      0.011620000000     0.285070000000     0.656550000000     0.0611818  
H        H      0.130050000000     0.276410000000     0.579240000000     0.0611818  
H        H      0.044050000000     0.285150000000     0.013520000000     0.0611818  
H        H      0.016310000000     0.276120000000     0.130910000000     0.0611818  
H        H      0.131920000000     0.272840000000     0.047860000000     0.0611818  
H        H      0.528100000000     0.102790000000     0.270680000000     0.0611818  
H        H      0.624530000000     0.994550000000     0.281480000000     0.0611818  
H        H      0.628700000000     0.094950000000     0.281950000000     0.0611818  
H        H      0.283240000000     0.996270000000     0.640180000000     0.0611818  
H        H      0.270920000000     0.084120000000     0.530280000000     0.0611818  
H        H      0.279950000000     0.111890000000     0.610870000000     0.0611818  
H        H      0.101840000000     0.622160000000     0.994790000000     0.0611818  
H        H      0.095960000000     0.528250000000     0.105090000000     0.0611818  
H        H      0.994490000000     0.630920000000     0.092400000000     0.0611818  
H        H      0.105040000000     0.096020000000     0.528250000000     0.0611818  
H        H      0.092460000000     0.994480000000     0.630860000000     0.0611818  
H        H      0.994780000000     0.101780000000     0.622220000000     0.0611818  
H        H      0.585910000000     0.277150000000     0.009550000000     0.0611818  
H        H      0.541200000000     0.272150000000     0.128930000000     0.0611818  
H        H      0.654210000000     0.284810000000     0.053800000000     0.0611818  
H        H      0.270930000000     0.530340000000     0.114870000000     0.0611818  
H        H      0.279920000000     0.610620000000     0.997370000000     0.0611818  
H        H      0.283260000000     0.640360000000     0.080040000000     0.0611818  
H        H      0.999670000000     0.116830000000     0.279210000000     0.0611818  
H        H      0.073280000000     0.998270000000     0.283740000000     0.0611818  
H        H      0.119330000000     0.077180000000     0.271150000000     0.0611818  
H        H      0.436970000000     0.866360000000     0.725410000000     0.0611818  
H        H      0.340550000000     0.974600000000     0.714610000000     0.0611818  
H        H      0.441150000000     0.966760000000     0.725880000000     0.0611818  
H        H      0.967770000000     0.340700000000     0.976910000000     0.0611818  
H        H      0.973650000000     0.434600000000     0.866600000000     0.0611818  
H        H      0.866300000000     0.443370000000     0.964210000000     0.0611818  
H        H      0.888120000000     0.720050000000     0.002720000000     0.0611818  
H        H      0.915860000000     0.729080000000     0.885330000000     0.0611818  
H        H      0.003730000000     0.716770000000     0.919670000000     0.0611818  
H        H      0.714850000000     0.955930000000     0.342720000000     0.0611818  
H        H      0.727160000000     0.868080000000     0.452630000000     0.0611818  
H        H      0.723880000000     0.983700000000     0.423320000000     0.0611818  
H        H      0.727160000000     0.952120000000     0.868080000000     0.0611818  
H        H      0.723880000000     0.869100000000     0.983700000000     0.0611818  
H        H      0.714850000000     0.986500000000     0.955930000000     0.0611818  
H        H      0.969490000000     0.340590000000     0.714610000000     0.0611818  
H        H      0.866230000000     0.441830000000     0.725950000000     0.0611818  
H        H      0.972000000000     0.436250000000     0.725330000000     0.0611818  
H        H      0.883430000000     0.729000000000     0.468990000000     0.0611818  
H        H      0.922420000000     0.716560000000     0.357990000000     0.0611818  
H        H      0.001860000000     0.720340000000     0.391690000000     0.0611818  
H        H      0.432400000000     0.866920000000     0.975790000000     0.0611818  
H        H      0.445340000000     0.961840000000     0.866470000000     0.0611818  
H        H      0.340930000000     0.978960000000     0.965460000000     0.0611818  
H        H      0.964280000000     0.866290000000     0.443310000000     0.0611818  
H        H      0.976850000000     0.967830000000     0.340700000000     0.0611818  
H        H      0.866590000000     0.973590000000     0.434670000000     0.0611818  
H        H      0.723850000000     0.423070000000     0.869180000000     0.0611818  
H        H      0.714860000000     0.342790000000     0.986680000000     0.0611818  
H        H      0.727180000000     0.452810000000     0.951860000000     0.0611818  
H        H      0.353650000000     0.716070000000     0.000740000000     0.0611818  
H        H      0.398360000000     0.721080000000     0.881360000000     0.0611818  
H        H      0.466660000000     0.728740000000     0.925610000000     0.0611818  
H        H      0.945090000000     0.870080000000     0.727670000000     0.0611818  
H        H      0.871480000000     0.988640000000     0.723140000000     0.0611818  
H        H      0.991140000000     0.948990000000     0.715080000000     0.0611818  
C        C      0.111300000000     0.388700000000     0.388700000000     0.00429304 
C        C      0.053300000000     0.446700000000     0.446700000000     0.00429304 
C        C      0.388700000000     0.111300000000     0.111300000000     0.00429304 
C        C      0.446700000000     0.053300000000     0.053300000000     0.00429304 
C        C      0.111300000000     0.388700000000     0.111300000000     0.00429304 
C        C      0.053300000000     0.446700000000     0.053300000000     0.00429304 
C        C      0.388700000000     0.111300000000     0.388700000000     0.00429304 
C        C      0.446700000000     0.053300000000     0.446700000000     0.00429304 
C        C      0.111300000000     0.111300000000     0.388700000000     0.00429304 
C        C      0.053300000000     0.053300000000     0.446700000000     0.00429304 
C        C      0.388700000000     0.388700000000     0.111300000000     0.00429304 
C        C      0.446700000000     0.446700000000     0.053300000000     0.00429304 
C        C      0.611300000000     0.888700000000     0.611300000000     0.00429304 
C        C      0.553300000000     0.946700000000     0.553300000000     0.00429304 
C        C      0.888700000000     0.611300000000     0.888700000000     0.00429304 
C        C      0.946700000000     0.553300000000     0.946700000000     0.00429304 
C        C      0.611300000000     0.888700000000     0.888700000000     0.00429304 
C        C      0.553300000000     0.946700000000     0.946700000000     0.00429304 
C        C      0.888700000000     0.611300000000     0.611300000000     0.00429304 
C        C      0.946700000000     0.553300000000     0.553300000000     0.00429304 
C        C      0.888700000000     0.888700000000     0.611300000000     0.00429304 
C        C      0.946700000000     0.946700000000     0.553300000000     0.00429304 
C        C      0.611300000000     0.611300000000     0.888700000000     0.00429304 
C        C      0.553300000000     0.553300000000     0.946700000000     0.00429304 
C        C      0.027000000000     0.537960000000     0.408040000000     0.00429304 
C        C      0.056800000000     0.582800000000     0.303600000000     0.00429304 
C        C      0.537960000000     0.027000000000     0.027000000000     0.00429304 
C        C      0.582800000000     0.056800000000     0.056800000000     0.00429304 
C        C      0.408040000000     0.027000000000     0.027000000000     0.00429304 
C        C      0.303600000000     0.056800000000     0.056800000000     0.00429304 
C        C      0.027000000000     0.408040000000     0.537960000000     0.00429304 
C        C      0.056800000000     0.303600000000     0.582800000000     0.00429304 
C        C      0.027000000000     0.408040000000     0.027000000000     0.00429304 
C        C      0.056800000000     0.303600000000     0.056800000000     0.00429304 
C        C      0.537960000000     0.027000000000     0.408040000000     0.00429304 
C        C      0.582800000000     0.056800000000     0.303600000000     0.00429304 
C        C      0.408040000000     0.027000000000     0.537960000000     0.00429304 
C        C      0.303600000000     0.056800000000     0.582800000000     0.00429304 
C        C      0.027000000000     0.537960000000     0.027000000000     0.00429304 
C        C      0.056800000000     0.582800000000     0.056800000000     0.00429304 
C        C      0.027000000000     0.027000000000     0.537960000000     0.00429304 
C        C      0.056800000000     0.056800000000     0.582800000000     0.00429304 
C        C      0.537960000000     0.408040000000     0.027000000000     0.00429304 
C        C      0.582800000000     0.303600000000     0.056800000000     0.00429304 
C        C      0.408040000000     0.537960000000     0.027000000000     0.00429304 
C        C      0.303600000000     0.582800000000     0.056800000000     0.00429304 
C        C      0.027000000000     0.027000000000     0.408040000000     0.00429304 
C        C      0.056800000000     0.056800000000     0.303600000000     0.00429304 
C        C      0.462040000000     0.973000000000     0.591960000000     0.00429304 
C        C      0.417200000000     0.943200000000     0.696400000000     0.00429304 
C        C      0.973000000000     0.462040000000     0.973000000000     0.00429304 
C        C      0.943200000000     0.417200000000     0.943200000000     0.00429304 
C        C      0.973000000000     0.591960000000     0.973000000000     0.00429304 
C        C      0.943200000000     0.696400000000     0.943200000000     0.00429304 
C        C      0.591960000000     0.973000000000     0.462040000000     0.00429304 
C        C      0.696400000000     0.943200000000     0.417200000000     0.00429304 
C        C      0.591960000000     0.973000000000     0.973000000000     0.00429304 
C        C      0.696400000000     0.943200000000     0.943200000000     0.00429304 
C        C      0.973000000000     0.462040000000     0.591960000000     0.00429304 
C        C      0.943200000000     0.417200000000     0.696400000000     0.00429304 
C        C      0.973000000000     0.591960000000     0.462040000000     0.00429304 
C        C      0.943200000000     0.696400000000     0.417200000000     0.00429304 
C        C      0.462040000000     0.973000000000     0.973000000000     0.00429304 
C        C      0.417200000000     0.943200000000     0.943200000000     0.00429304 
C        C      0.973000000000     0.973000000000     0.462040000000     0.00429304 
C        C      0.943200000000     0.943200000000     0.417200000000     0.00429304 
C        C      0.591960000000     0.462040000000     0.973000000000     0.00429304 
C        C      0.696400000000     0.417200000000     0.943200000000     0.00429304 
C        C      0.462040000000     0.591960000000     0.973000000000     0.00429304 
C        C      0.417200000000     0.696400000000     0.943200000000     0.00429304 
C        C      0.973000000000     0.973000000000     0.591960000000     0.00429304 
C        C      0.943200000000     0.943200000000     0.696400000000     0.00429304 
O        O      0.250000000000     0.250000000000     0.250000000000    -0.327956   
O        O      0.750000000000     0.750000000000     0.750000000000    -0.327956   
O        O      0.071930000000     0.366650000000     0.366650000000    -0.327956   
O        O      0.366650000000     0.071930000000     0.194770000000    -0.327956   
O        O      0.366650000000     0.194770000000     0.071930000000    -0.327956   
O        O      0.194770000000     0.366650000000     0.366650000000    -0.327956   
O        O      0.071930000000     0.366650000000     0.194770000000    -0.327956   
O        O      0.366650000000     0.194770000000     0.366650000000    -0.327956   
O        O      0.366650000000     0.071930000000     0.366650000000    -0.327956   
O        O      0.194770000000     0.366650000000     0.071930000000    -0.327956   
O        O      0.071930000000     0.194770000000     0.366650000000    -0.327956   
O        O      0.366650000000     0.366650000000     0.071930000000    -0.327956   
O        O      0.366650000000     0.366650000000     0.194770000000    -0.327956   
O        O      0.194770000000     0.071930000000     0.366650000000    -0.327956   
O        O      0.633350000000     0.928070000000     0.633350000000    -0.327956   
O        O      0.928070000000     0.633350000000     0.805230000000    -0.327956   
O        O      0.805230000000     0.633350000000     0.928070000000    -0.327956   
O        O      0.633350000000     0.805230000000     0.633350000000    -0.327956   
O        O      0.633350000000     0.928070000000     0.805230000000    -0.327956   
O        O      0.805230000000     0.633350000000     0.633350000000    -0.327956   
O        O      0.928070000000     0.633350000000     0.633350000000    -0.327956   
O        O      0.633350000000     0.805230000000     0.928070000000    -0.327956   
O        O      0.805230000000     0.928070000000     0.633350000000    -0.327956   
O        O      0.633350000000     0.633350000000     0.928070000000    -0.327956   
O        O      0.633350000000     0.633350000000     0.805230000000    -0.327956   
O        O      0.928070000000     0.805230000000     0.633350000000    -0.327956   


