data_AZIXUD_original

_audit_creation_method RASPA-1.0
_audit_creation_date 2022-1-29
_audit_author_name 'Felipe Lopes de Oliveira <felipe.lopes.oliveira@ibm.com>'

_cell_length_a    11.2562
_cell_length_b    13.1744
_cell_length_c    20.3965
_cell_angle_alpha 90
_cell_angle_beta  90
_cell_angle_gamma 90
_cell_volume      3024.67

_symmetry_cell_setting          triclinic
_symmetry_space_group_name_Hall 'P 1'
_symmetry_space_group_name_H-M  'P 1'
_symmetry_Int_Tables_number     1

_symmetry_equiv_pos_as_xyz 'x,y,z'

loop_
_atom_site_label
_atom_site_type_symbol
_atom_site_fract_x
_atom_site_fract_y
_atom_site_fract_z
_atom_site_charge
Zn       Zn     0.677180000000     0.978470000000     0.467750000000     0.450265   
Zn       Zn     0.889600000000     0.072050000000     0.359340000000     0.450265   
Zn       Zn     0.822820000000     0.021530000000     0.967750000000     0.450265   
Zn       Zn     0.610400000000     0.927950000000     0.859340000000     0.450265   
Zn       Zn     0.322820000000     0.478470000000     0.032250000000     0.450265   
Zn       Zn     0.110400000000     0.572050000000     0.140660000000     0.450265   
Zn       Zn     0.177180000000     0.521530000000     0.532250000000     0.450265   
Zn       Zn     0.389600000000     0.427950000000     0.640660000000     0.450265   
H        H      0.629300000000     0.294300000000     0.289900000000     0.0817901  
H        H      0.548300000000     0.274400000000     0.483300000000     0.0817901  
H        H      0.401400000000     0.497700000000     0.371000000000     0.0817901  
H        H      0.359900000000     0.522800000000     0.259300000000     0.0817901  
H        H      0.448900000000     0.554800000000     0.201800000000     0.0817901  
H        H      0.667600000000     0.549600000000     0.214900000000     0.0817901  
H        H      0.896100000000     0.778800000000     0.259100000000     0.0817901  
H        H      0.562100000000     0.778200000000     0.335800000000     0.0817901  
H        H      0.870700000000     0.705700000000     0.789900000000     0.0817901  
H        H      0.951700000000     0.725600000000     0.983300000000     0.0817901  
H        H      0.098600000000     0.502300000000     0.871000000000     0.0817901  
H        H      0.140100000000     0.477200000000     0.759300000000     0.0817901  
H        H      0.051100000000     0.445200000000     0.701800000000     0.0817901  
H        H      0.832400000000     0.450400000000     0.714900000000     0.0817901  
H        H      0.603900000000     0.221200000000     0.759100000000     0.0817901  
H        H      0.937900000000     0.221800000000     0.835800000000     0.0817901  
H        H      0.370700000000     0.794300000000     0.210100000000     0.0817901  
H        H      0.451700000000     0.774400000000     0.016700000000     0.0817901  
H        H      0.598600000000     0.997700000000     0.129000000000     0.0817901  
H        H      0.640100000000     0.022800000000     0.240700000000     0.0817901  
H        H      0.551100000000     0.054800000000     0.298200000000     0.0817901  
H        H      0.332400000000     0.049600000000     0.285100000000     0.0817901  
H        H      0.103900000000     0.278800000000     0.240900000000     0.0817901  
H        H      0.437900000000     0.278200000000     0.164200000000     0.0817901  
H        H      0.129300000000     0.205700000000     0.710100000000     0.0817901  
H        H      0.048300000000     0.225600000000     0.516700000000     0.0817901  
H        H      0.901400000000     0.002300000000     0.629000000000     0.0817901  
H        H      0.859900000000     0.977200000000     0.740700000000     0.0817901  
H        H      0.948900000000     0.945200000000     0.798200000000     0.0817901  
H        H      0.167600000000     0.950400000000     0.785100000000     0.0817901  
H        H      0.396100000000     0.721200000000     0.740900000000     0.0817901  
H        H      0.062100000000     0.721800000000     0.664200000000     0.0817901  
C        C      0.514200000000     0.403700000000     0.321560000000     0.0669804  
C        C      0.587700000000     0.319000000000     0.327110000000     0.0669804  
C        C      0.599800000000     0.270500000000     0.387450000000     0.0669804  
C        C      0.540300000000     0.307600000000     0.442240000000     0.0669804  
C        C      0.469200000000     0.393500000000     0.436690000000     0.0669804  
C        C      0.453200000000     0.441100000000     0.375330000000     0.0669804  
C        C      0.679800000000     0.179400000000     0.393950000000     0.0669804  
C        C      0.412100000000     0.436500000000     0.497100000000     0.0669804  
C        C      0.444300000000     0.536000000000     0.248730000000     0.0669804  
C        C      0.597500000000     0.657000000000     0.275810000000     0.0669804  
C        C      0.684200000000     0.611100000000     0.237470000000     0.0669804  
C        C      0.796300000000     0.656500000000     0.232420000000     0.0669804  
C        C      0.820500000000     0.747600000000     0.263960000000     0.0669804  
C        C      0.733400000000     0.793200000000     0.302790000000     0.0669804  
C        C      0.621400000000     0.747700000000     0.309090000000     0.0669804  
C        C      0.892500000000     0.602200000000     0.193890000000     0.0669804  
C        C      0.757500000000     0.889000000000     0.339720000000     0.0669804  
C        C      0.985800000000     0.596300000000     0.821560000000     0.0669804  
C        C      0.912300000000     0.681000000000     0.827110000000     0.0669804  
C        C      0.900200000000     0.729500000000     0.887450000000     0.0669804  
C        C      0.959700000000     0.692400000000     0.942240000000     0.0669804  
C        C      0.030800000000     0.606500000000     0.936690000000     0.0669804  
C        C      0.046800000000     0.558900000000     0.875330000000     0.0669804  
C        C      0.820200000000     0.820600000000     0.893950000000     0.0669804  
C        C      0.087900000000     0.563500000000     0.997100000000     0.0669804  
C        C      0.055700000000     0.464000000000     0.748730000000     0.0669804  
C        C      0.902500000000     0.343000000000     0.775810000000     0.0669804  
C        C      0.815800000000     0.388900000000     0.737470000000     0.0669804  
C        C      0.703700000000     0.343500000000     0.732420000000     0.0669804  
C        C      0.679500000000     0.252400000000     0.763960000000     0.0669804  
C        C      0.766600000000     0.206800000000     0.802790000000     0.0669804  
C        C      0.878600000000     0.252300000000     0.809090000000     0.0669804  
C        C      0.607500000000     0.397800000000     0.693890000000     0.0669804  
C        C      0.742500000000     0.111000000000     0.839720000000     0.0669804  
C        C      0.485800000000     0.903700000000     0.178440000000     0.0669804  
C        C      0.412300000000     0.819000000000     0.172890000000     0.0669804  
C        C      0.400200000000     0.770500000000     0.112550000000     0.0669804  
C        C      0.459700000000     0.807600000000     0.057760000000     0.0669804  
C        C      0.530800000000     0.893500000000     0.063310000000     0.0669804  
C        C      0.546800000000     0.941100000000     0.124670000000     0.0669804  
C        C      0.320200000000     0.679400000000     0.106050000000     0.0669804  
C        C      0.587900000000     0.936500000000     0.002900000000     0.0669804  
C        C      0.555700000000     0.036000000000     0.251270000000     0.0669804  
C        C      0.402500000000     0.157000000000     0.224190000000     0.0669804  
C        C      0.315800000000     0.111100000000     0.262530000000     0.0669804  
C        C      0.203700000000     0.156500000000     0.267580000000     0.0669804  
C        C      0.179500000000     0.247600000000     0.236040000000     0.0669804  
C        C      0.266600000000     0.293200000000     0.197210000000     0.0669804  
C        C      0.378600000000     0.247700000000     0.190910000000     0.0669804  
C        C      0.107500000000     0.102200000000     0.306110000000     0.0669804  
C        C      0.242500000000     0.389000000000     0.160280000000     0.0669804  
C        C      0.014200000000     0.096300000000     0.678440000000     0.0669804  
C        C      0.087700000000     0.181000000000     0.672890000000     0.0669804  
C        C      0.099800000000     0.229500000000     0.612550000000     0.0669804  
C        C      0.040300000000     0.192400000000     0.557760000000     0.0669804  
C        C      0.969200000000     0.106500000000     0.563310000000     0.0669804  
C        C      0.953200000000     0.058900000000     0.624670000000     0.0669804  
C        C      0.179800000000     0.320600000000     0.606050000000     0.0669804  
C        C      0.912100000000     0.063500000000     0.502900000000     0.0669804  
C        C      0.944300000000     0.964000000000     0.751270000000     0.0669804  
C        C      0.097500000000     0.843000000000     0.724190000000     0.0669804  
C        C      0.184200000000     0.888900000000     0.762530000000     0.0669804  
C        C      0.296300000000     0.843500000000     0.767580000000     0.0669804  
C        C      0.320500000000     0.752400000000     0.736040000000     0.0669804  
C        C      0.233400000000     0.706800000000     0.697210000000     0.0669804  
C        C      0.121400000000     0.752300000000     0.690910000000     0.0669804  
C        C      0.392500000000     0.897800000000     0.806110000000     0.0669804  
C        C      0.257500000000     0.611000000000     0.660280000000     0.0669804  
O        O      0.746900000000     0.158230000000     0.345780000000    -0.269352   
O        O      0.675200000000     0.130950000000     0.447350000000    -0.269352   
O        O      0.444120000000     0.399660000000     0.550880000000    -0.269352   
O        O      0.337400000000     0.507900000000     0.489640000000    -0.269352   
O        O      0.510780000000     0.445390000000     0.258980000000    -0.269352   
O        O      0.484940000000     0.618400000000     0.287030000000    -0.269352   
O        O      0.869990000000     0.522330000000     0.165260000000    -0.269352   
O        O      0.995750000000     0.643560000000     0.195720000000    -0.269352   
O        O      0.855010000000     0.933540000000     0.329000000000    -0.269352   
O        O      0.677860000000     0.918800000000     0.378770000000    -0.269352   
O        O      0.753100000000     0.841770000000     0.845780000000    -0.269352   
O        O      0.824800000000     0.869050000000     0.947350000000    -0.269352   
O        O      0.055880000000     0.600340000000     0.050880000000    -0.269352   
O        O      0.162600000000     0.492100000000     0.989640000000    -0.269352   
O        O      0.989220000000     0.554610000000     0.758980000000    -0.269352   
O        O      0.015060000000     0.381600000000     0.787030000000    -0.269352   
O        O      0.630010000000     0.477670000000     0.665260000000    -0.269352   
O        O      0.504250000000     0.356440000000     0.695720000000    -0.269352   
O        O      0.644990000000     0.066460000000     0.829000000000    -0.269352   
O        O      0.822140000000     0.081200000000     0.878770000000    -0.269352   
O        O      0.253100000000     0.658230000000     0.154220000000    -0.269352   
O        O      0.324800000000     0.630950000000     0.052650000000    -0.269352   
O        O      0.555880000000     0.899660000000     0.949120000000    -0.269352   
O        O      0.662600000000     0.007900000000     0.010360000000    -0.269352   
O        O      0.489220000000     0.945390000000     0.241020000000    -0.269352   
O        O      0.515060000000     0.118400000000     0.212970000000    -0.269352   
O        O      0.130010000000     0.022330000000     0.334740000000    -0.269352   
O        O      0.004250000000     0.143560000000     0.304280000000    -0.269352   
O        O      0.144990000000     0.433540000000     0.171000000000    -0.269352   
O        O      0.322140000000     0.418800000000     0.121230000000    -0.269352   
O        O      0.246900000000     0.341770000000     0.654220000000    -0.269352   
O        O      0.175200000000     0.369050000000     0.552650000000    -0.269352   
O        O      0.944120000000     0.100340000000     0.449120000000    -0.269352   
O        O      0.837400000000     0.992100000000     0.510360000000    -0.269352   
O        O      0.010780000000     0.054610000000     0.741020000000    -0.269352   
O        O      0.984940000000     0.881600000000     0.712970000000    -0.269352   
O        O      0.369990000000     0.977670000000     0.834740000000    -0.269352   
O        O      0.495750000000     0.856440000000     0.804280000000    -0.269352   
O        O      0.355010000000     0.566460000000     0.671000000000    -0.269352   
O        O      0.177860000000     0.581200000000     0.621230000000    -0.269352   


