data_BARZAW_original

_audit_creation_method RASPA-1.0
_audit_creation_date 2022-1-30
_audit_author_name 'Felipe Lopes de Oliveira <felipe.lopes.oliveira@ibm.com>'

_cell_length_a    18.2791
_cell_length_b    18.4914
_cell_length_c    18.4914
_cell_angle_alpha 109.703
_cell_angle_beta  109.239
_cell_angle_gamma 109.239
_cell_volume      4825.13

_symmetry_cell_setting          triclinic
_symmetry_space_group_name_Hall 'P 1'
_symmetry_space_group_name_H-M  'P 1'
_symmetry_Int_Tables_number     1

_symmetry_equiv_pos_as_xyz 'x,y,z'

loop_
_atom_site_label
_atom_site_type_symbol
_atom_site_fract_x
_atom_site_fract_y
_atom_site_fract_z
_atom_site_charge
Zn       Zn     0.440180000000     0.925990000000     0.505910000000     0.460809   
Zn       Zn     0.514190000000     0.579920000000     0.074010000000     0.460809   
Zn       Zn     0.934270000000     0.494090000000     0.420080000000     0.460809   
Zn       Zn     0.985810000000     0.925990000000     0.420080000000     0.460809   
Zn       Zn     0.565730000000     0.579920000000     0.505910000000     0.460809   
Zn       Zn     0.059820000000     0.494090000000     0.074010000000     0.460809   
Zn       Zn     0.559820000000     0.074010000000     0.494090000000     0.460809   
Zn       Zn     0.485810000000     0.420080000000     0.925990000000     0.460809   
Zn       Zn     0.065730000000     0.505910000000     0.579920000000     0.460809   
Zn       Zn     0.014190000000     0.074010000000     0.579920000000     0.460809   
Zn       Zn     0.434270000000     0.420080000000     0.494090000000     0.460809   
Zn       Zn     0.940180000000     0.505910000000     0.925990000000     0.460809   
H        H      0.504000000000     0.720900000000     0.372000000000     0.0513369  
H        H      0.360200000000     0.993000000000     0.225600000000     0.0513369  
H        H      0.419300000000     0.695700000000     0.705900000000     0.0513369  
H        H      0.189900000000     0.754100000000     0.599200000000     0.0513369  
H        H      0.161200000000     0.823300000000     0.518000000000     0.0513369  
H        H      0.265900000000     0.886600000000     0.480500000000     0.0513369  
H        H      0.516200000000     0.755000000000     0.658300000000     0.0513369  
H        H      0.290000000000     0.703700000000     0.671200000000     0.0513369  
H        H      0.486000000000     0.824500000000     0.578600000000     0.0513369  
H        H      0.783100000000     0.651100000000     0.279100000000     0.0513369  
H        H      0.367200000000     0.232600000000     0.007000000000     0.0513369  
H        H      0.723600000000     0.010200000000     0.304300000000     0.0513369  
H        H      0.435800000000     0.845100000000     0.245900000000     0.0513369  
H        H      0.337900000000     0.694700000000     0.176700000000     0.0513369  
H        H      0.379300000000     0.593900000000     0.113400000000     0.0513369  
H        H      0.761200000000     0.903300000000     0.245000000000     0.0513369  
H        H      0.586300000000     0.967500000000     0.296300000000     0.0513369  
H        H      0.661500000000     0.754100000000     0.175500000000     0.0513369  
H        H      0.132000000000     0.628000000000     0.348900000000     0.0513369  
H        H      0.134600000000     0.774400000000     0.767400000000     0.0513369  
H        H      0.713400000000     0.294100000000     0.989800000000     0.0513369  
H        H      0.590700000000     0.400800000000     0.154900000000     0.0513369  
H        H      0.643200000000     0.482000000000     0.305300000000     0.0513369  
H        H      0.785400000000     0.519500000000     0.406100000000     0.0513369  
H        H      0.857900000000     0.341700000000     0.096700000000     0.0513369  
H        H      0.618800000000     0.328800000000     0.032500000000     0.0513369  
H        H      0.907400000000     0.421400000000     0.245900000000     0.0513369  
H        H      0.716900000000     0.720900000000     0.348900000000     0.0513369  
H        H      0.132800000000     0.993000000000     0.767400000000     0.0513369  
H        H      0.776400000000     0.695700000000     0.989800000000     0.0513369  
H        H      0.064200000000     0.754100000000     0.154900000000     0.0513369  
H        H      0.162100000000     0.823300000000     0.305300000000     0.0513369  
H        H      0.120700000000     0.886600000000     0.406100000000     0.0513369  
H        H      0.738800000000     0.755000000000     0.096700000000     0.0513369  
H        H      0.913700000000     0.703700000000     0.032500000000     0.0513369  
H        H      0.838500000000     0.824500000000     0.245900000000     0.0513369  
H        H      0.368000000000     0.651100000000     0.372000000000     0.0513369  
H        H      0.365400000000     0.232600000000     0.225600000000     0.0513369  
H        H      0.786600000000     0.010200000000     0.705900000000     0.0513369  
H        H      0.909300000000     0.845100000000     0.599200000000     0.0513369  
H        H      0.856800000000     0.694700000000     0.518000000000     0.0513369  
H        H      0.714600000000     0.593900000000     0.480500000000     0.0513369  
H        H      0.642100000000     0.903300000000     0.658300000000     0.0513369  
H        H      0.881200000000     0.967500000000     0.671200000000     0.0513369  
H        H      0.592600000000     0.754100000000     0.578600000000     0.0513369  
H        H      0.996000000000     0.628000000000     0.279100000000     0.0513369  
H        H      0.139800000000     0.774400000000     0.007000000000     0.0513369  
H        H      0.080700000000     0.294100000000     0.304300000000     0.0513369  
H        H      0.310100000000     0.400800000000     0.245900000000     0.0513369  
H        H      0.338800000000     0.482000000000     0.176700000000     0.0513369  
H        H      0.234100000000     0.519500000000     0.113400000000     0.0513369  
H        H      0.983800000000     0.341700000000     0.245000000000     0.0513369  
H        H      0.210000000000     0.328800000000     0.296300000000     0.0513369  
H        H      0.014000000000     0.421400000000     0.175500000000     0.0513369  
H        H      0.496000000000     0.279100000000     0.628000000000     0.0513369  
H        H      0.639800000000     0.007000000000     0.774400000000     0.0513369  
H        H      0.580700000000     0.304300000000     0.294100000000     0.0513369  
H        H      0.810100000000     0.245900000000     0.400800000000     0.0513369  
H        H      0.838800000000     0.176700000000     0.482000000000     0.0513369  
H        H      0.734100000000     0.113400000000     0.519500000000     0.0513369  
H        H      0.483800000000     0.245000000000     0.341700000000     0.0513369  
H        H      0.710000000000     0.296300000000     0.328800000000     0.0513369  
H        H      0.514000000000     0.175500000000     0.421400000000     0.0513369  
H        H      0.216900000000     0.348900000000     0.720900000000     0.0513369  
H        H      0.632800000000     0.767400000000     0.993000000000     0.0513369  
H        H      0.276400000000     0.989800000000     0.695700000000     0.0513369  
H        H      0.564200000000     0.154900000000     0.754100000000     0.0513369  
H        H      0.662100000000     0.305300000000     0.823300000000     0.0513369  
H        H      0.620700000000     0.406100000000     0.886600000000     0.0513369  
H        H      0.238800000000     0.096700000000     0.755000000000     0.0513369  
H        H      0.413700000000     0.032500000000     0.703700000000     0.0513369  
H        H      0.338500000000     0.245900000000     0.824500000000     0.0513369  
H        H      0.868000000000     0.372000000000     0.651100000000     0.0513369  
H        H      0.865400000000     0.225600000000     0.232600000000     0.0513369  
H        H      0.286600000000     0.705900000000     0.010200000000     0.0513369  
H        H      0.409300000000     0.599200000000     0.845100000000     0.0513369  
H        H      0.356800000000     0.518000000000     0.694700000000     0.0513369  
H        H      0.214600000000     0.480500000000     0.593900000000     0.0513369  
H        H      0.142100000000     0.658300000000     0.903300000000     0.0513369  
H        H      0.381200000000     0.671200000000     0.967500000000     0.0513369  
H        H      0.092600000000     0.578600000000     0.754100000000     0.0513369  
H        H      0.283100000000     0.279100000000     0.651100000000     0.0513369  
H        H      0.867200000000     0.007000000000     0.232600000000     0.0513369  
H        H      0.223600000000     0.304300000000     0.010200000000     0.0513369  
H        H      0.935800000000     0.245900000000     0.845100000000     0.0513369  
H        H      0.837900000000     0.176700000000     0.694700000000     0.0513369  
H        H      0.879300000000     0.113400000000     0.593900000000     0.0513369  
H        H      0.261200000000     0.245000000000     0.903300000000     0.0513369  
H        H      0.086300000000     0.296300000000     0.967500000000     0.0513369  
H        H      0.161500000000     0.175500000000     0.754100000000     0.0513369  
H        H      0.632000000000     0.348900000000     0.628000000000     0.0513369  
H        H      0.634600000000     0.767400000000     0.774400000000     0.0513369  
H        H      0.213400000000     0.989800000000     0.294100000000     0.0513369  
H        H      0.090700000000     0.154900000000     0.400800000000     0.0513369  
H        H      0.143200000000     0.305300000000     0.482000000000     0.0513369  
H        H      0.285400000000     0.406100000000     0.519500000000     0.0513369  
H        H      0.357900000000     0.096700000000     0.341700000000     0.0513369  
H        H      0.118800000000     0.032500000000     0.328800000000     0.0513369  
H        H      0.407400000000     0.245900000000     0.421400000000     0.0513369  
H        H      0.004000000000     0.372000000000     0.720900000000     0.0513369  
H        H      0.860200000000     0.225600000000     0.993000000000     0.0513369  
H        H      0.919300000000     0.705900000000     0.695700000000     0.0513369  
H        H      0.689900000000     0.599200000000     0.754100000000     0.0513369  
H        H      0.661200000000     0.518000000000     0.823300000000     0.0513369  
H        H      0.765900000000     0.480500000000     0.886600000000     0.0513369  
H        H      0.016200000000     0.658300000000     0.755000000000     0.0513369  
H        H      0.790000000000     0.671200000000     0.703700000000     0.0513369  
H        H      0.986000000000     0.578600000000     0.824500000000     0.0513369  
H        H      0.726500000000     0.953000000000     0.476500000000     0.0513369  
H        H      0.571900000000     0.643800000000     0.321900000000     0.0513369  
H        H      0.773500000000     0.523500000000     0.047000000000     0.0513369  
H        H      0.928100000000     0.678100000000     0.356200000000     0.0513369  
H        H      0.250000000000     0.523500000000     0.476500000000     0.0513369  
H        H      0.250000000000     0.678100000000     0.321900000000     0.0513369  
H        H      0.273500000000     0.047000000000     0.523500000000     0.0513369  
H        H      0.428100000000     0.356200000000     0.678100000000     0.0513369  
H        H      0.226500000000     0.476500000000     0.953000000000     0.0513369  
H        H      0.071900000000     0.321900000000     0.643800000000     0.0513369  
H        H      0.750000000000     0.476500000000     0.523500000000     0.0513369  
H        H      0.750000000000     0.321900000000     0.678100000000     0.0513369  
H        H      0.250000000000     0.767950000000     0.232050000000     0.0513369  
H        H      0.250000000000     0.922400000000     0.077600000000     0.0513369  
H        H      0.482050000000     0.464100000000     0.232050000000     0.0513369  
H        H      0.327600000000     0.155200000000     0.077600000000     0.0513369  
H        H      0.017950000000     0.767950000000     0.535900000000     0.0513369  
H        H      0.172400000000     0.922400000000     0.844800000000     0.0513369  
H        H      0.750000000000     0.232050000000     0.767950000000     0.0513369  
H        H      0.750000000000     0.077600000000     0.922400000000     0.0513369  
H        H      0.517950000000     0.535900000000     0.767950000000     0.0513369  
H        H      0.672400000000     0.844800000000     0.922400000000     0.0513369  
H        H      0.982050000000     0.232050000000     0.464100000000     0.0513369  
H        H      0.827600000000     0.077600000000     0.155200000000     0.0513369  
C        C      0.560980000000     0.894370000000     0.451220000000     0.0186906  
C        C      0.607360000000     0.844410000000     0.425880000000     0.0186906  
C        C      0.562520000000     0.752440000000     0.382190000000     0.0186906  
C        C      0.380010000000     0.931180000000     0.340100000000     0.0186906  
C        C      0.313350000000     0.887930000000     0.244000000000     0.0186906  
C        C      0.314880000000     0.933270000000     0.197280000000     0.0186906  
C        C      0.405520000000     0.723720000000     0.672930000000     0.0186906  
C        C      0.231200000000     0.778720000000     0.582140000000     0.0186906  
C        C      0.214500000000     0.819890000000     0.535120000000     0.0186906  
C        C      0.277460000000     0.857070000000     0.512370000000     0.0186906  
C        C      0.463710000000     0.759790000000     0.644600000000     0.0186906  
C        C      0.309460000000     0.772540000000     0.605540000000     0.0186906  
C        C      0.329680000000     0.729160000000     0.653030000000     0.0186906  
C        C      0.369410000000     0.809910000000     0.578760000000     0.0186906  
C        C      0.446410000000     0.801450000000     0.597930000000     0.0186906  
C        C      0.666610000000     0.556850000000     0.105630000000     0.0186906  
C        C      0.762950000000     0.581470000000     0.155590000000     0.0186906  
C        C      0.810080000000     0.629750000000     0.247560000000     0.0186906  
C        C      0.448830000000     0.408920000000     0.068820000000     0.0186906  
C        C      0.425420000000     0.356070000000     0.112070000000     0.0186906  
C        C      0.381610000000     0.264010000000     0.066730000000     0.0186906  
C        C      0.681800000000     0.949210000000     0.276280000000     0.0186906  
C        C      0.452480000000     0.803420000000     0.221280000000     0.0186906  
C        C      0.394610000000     0.715230000000     0.180110000000     0.0186906  
C        C      0.420390000000     0.655300000000     0.142930000000     0.0186906  
C        C      0.703920000000     0.884810000000     0.240210000000     0.0186906  
C        C      0.536920000000     0.833000000000     0.227460000000     0.0186906  
C        C      0.600520000000     0.923870000000     0.270840000000     0.0186906  
C        C      0.559500000000     0.768850000000     0.190090000000     0.0186906  
C        C      0.644960000000     0.796480000000     0.198550000000     0.0186906  
C        C      0.109760000000     0.548780000000     0.443150000000     0.0186906  
C        C      0.181480000000     0.574120000000     0.418530000000     0.0186906  
C        C      0.180330000000     0.617810000000     0.370250000000     0.0186906  
C        C      0.039910000000     0.659900000000     0.591080000000     0.0186906  
C        C      0.069350000000     0.756000000000     0.643930000000     0.0186906  
C        C      0.117600000000     0.802720000000     0.735990000000     0.0186906  
C        C      0.732590000000     0.327070000000     0.050790000000     0.0186906  
C        C      0.649060000000     0.417860000000     0.196580000000     0.0186906  
C        C      0.679380000000     0.464880000000     0.284770000000     0.0186906  
C        C      0.765090000000     0.487630000000     0.344700000000     0.0186906  
C        C      0.819110000000     0.355400000000     0.115190000000     0.0186906  
C        C      0.703920000000     0.394460000000     0.167000000000     0.0186906  
C        C      0.676650000000     0.346970000000     0.076130000000     0.0186906  
C        C      0.790650000000     0.421240000000     0.231150000000     0.0186906  
C        C      0.848480000000     0.402070000000     0.203520000000     0.0186906  
C        C      0.833390000000     0.894370000000     0.443150000000     0.0186906  
C        C      0.737050000000     0.844410000000     0.418530000000     0.0186906  
C        C      0.689920000000     0.752440000000     0.370250000000     0.0186906  
C        C      0.051170000000     0.931180000000     0.591080000000     0.0186906  
C        C      0.074580000000     0.887930000000     0.643930000000     0.0186906  
C        C      0.118390000000     0.933270000000     0.735990000000     0.0186906  
C        C      0.818200000000     0.723720000000     0.050790000000     0.0186906  
C        C      0.047520000000     0.778720000000     0.196580000000     0.0186906  
C        C      0.105390000000     0.819890000000     0.284770000000     0.0186906  
C        C      0.079610000000     0.857070000000     0.344700000000     0.0186906  
C        C      0.796080000000     0.759790000000     0.115190000000     0.0186906  
C        C      0.963080000000     0.772540000000     0.167000000000     0.0186906  
C        C      0.899480000000     0.729160000000     0.076130000000     0.0186906  
C        C      0.940500000000     0.809910000000     0.231150000000     0.0186906  
C        C      0.855040000000     0.801450000000     0.203520000000     0.0186906  
C        C      0.390240000000     0.556850000000     0.451220000000     0.0186906  
C        C      0.318520000000     0.581470000000     0.425880000000     0.0186906  
C        C      0.319670000000     0.629750000000     0.382190000000     0.0186906  
C        C      0.460090000000     0.408920000000     0.340100000000     0.0186906  
C        C      0.430650000000     0.356070000000     0.244000000000     0.0186906  
C        C      0.382400000000     0.264010000000     0.197280000000     0.0186906  
C        C      0.767410000000     0.949210000000     0.672930000000     0.0186906  
C        C      0.850940000000     0.803420000000     0.582140000000     0.0186906  
C        C      0.820620000000     0.715230000000     0.535120000000     0.0186906  
C        C      0.734910000000     0.655300000000     0.512370000000     0.0186906  
C        C      0.680890000000     0.884810000000     0.644600000000     0.0186906  
C        C      0.796080000000     0.833000000000     0.605540000000     0.0186906  
C        C      0.823350000000     0.923870000000     0.653030000000     0.0186906  
C        C      0.709350000000     0.768850000000     0.578760000000     0.0186906  
C        C      0.651520000000     0.796480000000     0.597930000000     0.0186906  
C        C      0.939020000000     0.548780000000     0.105630000000     0.0186906  
C        C      0.892640000000     0.574120000000     0.155590000000     0.0186906  
C        C      0.937480000000     0.617810000000     0.247560000000     0.0186906  
C        C      0.119990000000     0.659900000000     0.068820000000     0.0186906  
C        C      0.186650000000     0.756000000000     0.112070000000     0.0186906  
C        C      0.185120000000     0.802720000000     0.066730000000     0.0186906  
C        C      0.094480000000     0.327070000000     0.276280000000     0.0186906  
C        C      0.268800000000     0.417860000000     0.221280000000     0.0186906  
C        C      0.285500000000     0.464880000000     0.180110000000     0.0186906  
C        C      0.222540000000     0.487630000000     0.142930000000     0.0186906  
C        C      0.036290000000     0.355400000000     0.240210000000     0.0186906  
C        C      0.190540000000     0.394460000000     0.227460000000     0.0186906  
C        C      0.170320000000     0.346970000000     0.270840000000     0.0186906  
C        C      0.130590000000     0.421240000000     0.190090000000     0.0186906  
C        C      0.053590000000     0.402070000000     0.198550000000     0.0186906  
C        C      0.439020000000     0.105630000000     0.548780000000     0.0186906  
C        C      0.392640000000     0.155590000000     0.574120000000     0.0186906  
C        C      0.437480000000     0.247560000000     0.617810000000     0.0186906  
C        C      0.619990000000     0.068820000000     0.659900000000     0.0186906  
C        C      0.686650000000     0.112070000000     0.756000000000     0.0186906  
C        C      0.685120000000     0.066730000000     0.802720000000     0.0186906  
C        C      0.594480000000     0.276280000000     0.327070000000     0.0186906  
C        C      0.768800000000     0.221280000000     0.417860000000     0.0186906  
C        C      0.785500000000     0.180110000000     0.464880000000     0.0186906  
C        C      0.722540000000     0.142930000000     0.487630000000     0.0186906  
C        C      0.536290000000     0.240210000000     0.355400000000     0.0186906  
C        C      0.690540000000     0.227460000000     0.394460000000     0.0186906  
C        C      0.670320000000     0.270840000000     0.346970000000     0.0186906  
C        C      0.630590000000     0.190090000000     0.421240000000     0.0186906  
C        C      0.553590000000     0.198550000000     0.402070000000     0.0186906  
C        C      0.333390000000     0.443150000000     0.894370000000     0.0186906  
C        C      0.237050000000     0.418530000000     0.844410000000     0.0186906  
C        C      0.189920000000     0.370250000000     0.752440000000     0.0186906  
C        C      0.551170000000     0.591080000000     0.931180000000     0.0186906  
C        C      0.574580000000     0.643930000000     0.887930000000     0.0186906  
C        C      0.618390000000     0.735990000000     0.933270000000     0.0186906  
C        C      0.318200000000     0.050790000000     0.723720000000     0.0186906  
C        C      0.547520000000     0.196580000000     0.778720000000     0.0186906  
C        C      0.605390000000     0.284770000000     0.819890000000     0.0186906  
C        C      0.579610000000     0.344700000000     0.857070000000     0.0186906  
C        C      0.296080000000     0.115190000000     0.759790000000     0.0186906  
C        C      0.463080000000     0.167000000000     0.772540000000     0.0186906  
C        C      0.399480000000     0.076130000000     0.729160000000     0.0186906  
C        C      0.440500000000     0.231150000000     0.809910000000     0.0186906  
C        C      0.355040000000     0.203520000000     0.801450000000     0.0186906  
C        C      0.890240000000     0.451220000000     0.556850000000     0.0186906  
C        C      0.818520000000     0.425880000000     0.581470000000     0.0186906  
C        C      0.819670000000     0.382190000000     0.629750000000     0.0186906  
C        C      0.960090000000     0.340100000000     0.408920000000     0.0186906  
C        C      0.930650000000     0.244000000000     0.356070000000     0.0186906  
C        C      0.882400000000     0.197280000000     0.264010000000     0.0186906  
C        C      0.267410000000     0.672930000000     0.949210000000     0.0186906  
C        C      0.350940000000     0.582140000000     0.803420000000     0.0186906  
C        C      0.320620000000     0.535120000000     0.715230000000     0.0186906  
C        C      0.234910000000     0.512370000000     0.655300000000     0.0186906  
C        C      0.180890000000     0.644600000000     0.884810000000     0.0186906  
C        C      0.296080000000     0.605540000000     0.833000000000     0.0186906  
C        C      0.323350000000     0.653030000000     0.923870000000     0.0186906  
C        C      0.209350000000     0.578760000000     0.768850000000     0.0186906  
C        C      0.151520000000     0.597930000000     0.796480000000     0.0186906  
C        C      0.166610000000     0.105630000000     0.556850000000     0.0186906  
C        C      0.262950000000     0.155590000000     0.581470000000     0.0186906  
C        C      0.310080000000     0.247560000000     0.629750000000     0.0186906  
C        C      0.948830000000     0.068820000000     0.408920000000     0.0186906  
C        C      0.925420000000     0.112070000000     0.356070000000     0.0186906  
C        C      0.881610000000     0.066730000000     0.264010000000     0.0186906  
C        C      0.181800000000     0.276280000000     0.949210000000     0.0186906  
C        C      0.952480000000     0.221280000000     0.803420000000     0.0186906  
C        C      0.894610000000     0.180110000000     0.715230000000     0.0186906  
C        C      0.920390000000     0.142930000000     0.655300000000     0.0186906  
C        C      0.203920000000     0.240210000000     0.884810000000     0.0186906  
C        C      0.036920000000     0.227460000000     0.833000000000     0.0186906  
C        C      0.100520000000     0.270840000000     0.923870000000     0.0186906  
C        C      0.059500000000     0.190090000000     0.768850000000     0.0186906  
C        C      0.144960000000     0.198550000000     0.796480000000     0.0186906  
C        C      0.609760000000     0.443150000000     0.548780000000     0.0186906  
C        C      0.681480000000     0.418530000000     0.574120000000     0.0186906  
C        C      0.680330000000     0.370250000000     0.617810000000     0.0186906  
C        C      0.539910000000     0.591080000000     0.659900000000     0.0186906  
C        C      0.569350000000     0.643930000000     0.756000000000     0.0186906  
C        C      0.617600000000     0.735990000000     0.802720000000     0.0186906  
C        C      0.232590000000     0.050790000000     0.327070000000     0.0186906  
C        C      0.149060000000     0.196580000000     0.417860000000     0.0186906  
C        C      0.179380000000     0.284770000000     0.464880000000     0.0186906  
C        C      0.265090000000     0.344700000000     0.487630000000     0.0186906  
C        C      0.319110000000     0.115190000000     0.355400000000     0.0186906  
C        C      0.203920000000     0.167000000000     0.394460000000     0.0186906  
C        C      0.176650000000     0.076130000000     0.346970000000     0.0186906  
C        C      0.290650000000     0.231150000000     0.421240000000     0.0186906  
C        C      0.348480000000     0.203520000000     0.402070000000     0.0186906  
C        C      0.060980000000     0.451220000000     0.894370000000     0.0186906  
C        C      0.107360000000     0.425880000000     0.844410000000     0.0186906  
C        C      0.062520000000     0.382190000000     0.752440000000     0.0186906  
C        C      0.880010000000     0.340100000000     0.931180000000     0.0186906  
C        C      0.813350000000     0.244000000000     0.887930000000     0.0186906  
C        C      0.814880000000     0.197280000000     0.933270000000     0.0186906  
C        C      0.905520000000     0.672930000000     0.723720000000     0.0186906  
C        C      0.731200000000     0.582140000000     0.778720000000     0.0186906  
C        C      0.714500000000     0.535120000000     0.819890000000     0.0186906  
C        C      0.777460000000     0.512370000000     0.857070000000     0.0186906  
C        C      0.963710000000     0.644600000000     0.759790000000     0.0186906  
C        C      0.809460000000     0.605540000000     0.772540000000     0.0186906  
C        C      0.829680000000     0.653030000000     0.729160000000     0.0186906  
C        C      0.869410000000     0.578760000000     0.809910000000     0.0186906  
C        C      0.946410000000     0.597930000000     0.801450000000     0.0186906  
C        C      0.695130000000     0.890260000000     0.445130000000     0.0186906  
C        C      0.603330000000     0.706660000000     0.353330000000     0.0186906  
C        C      0.804870000000     0.554870000000     0.109740000000     0.0186906  
C        C      0.896670000000     0.646670000000     0.293340000000     0.0186906  
C        C      0.250000000000     0.554870000000     0.445130000000     0.0186906  
C        C      0.250000000000     0.646670000000     0.353330000000     0.0186906  
C        C      0.304870000000     0.109740000000     0.554870000000     0.0186906  
C        C      0.396670000000     0.293340000000     0.646670000000     0.0186906  
C        C      0.195130000000     0.445130000000     0.890260000000     0.0186906  
C        C      0.103330000000     0.353330000000     0.706660000000     0.0186906  
C        C      0.750000000000     0.445130000000     0.554870000000     0.0186906  
C        C      0.750000000000     0.353330000000     0.646670000000     0.0186906  
C        C      0.250000000000     0.799350000000     0.200650000000     0.0186906  
C        C      0.250000000000     0.890990000000     0.109010000000     0.0186906  
C        C      0.450650000000     0.401300000000     0.200650000000     0.0186906  
C        C      0.359010000000     0.218020000000     0.109010000000     0.0186906  
C        C      0.049350000000     0.799350000000     0.598700000000     0.0186906  
C        C      0.140990000000     0.890990000000     0.781980000000     0.0186906  
C        C      0.750000000000     0.200650000000     0.799350000000     0.0186906  
C        C      0.750000000000     0.109010000000     0.890990000000     0.0186906  
C        C      0.549350000000     0.598700000000     0.799350000000     0.0186906  
C        C      0.640990000000     0.781980000000     0.890990000000     0.0186906  
C        C      0.950650000000     0.200650000000     0.401300000000     0.0186906  
C        C      0.859010000000     0.109010000000     0.218020000000     0.0186906  
N        N      0.352300000000     0.853200000000     0.532920000000    -0.156803   
N        N      0.499100000000     0.679720000000     0.146800000000    -0.156803   
N        N      0.819380000000     0.467080000000     0.320280000000    -0.156803   
N        N      0.000900000000     0.853200000000     0.320280000000    -0.156803   
N        N      0.680620000000     0.679720000000     0.532920000000    -0.156803   
N        N      0.147700000000     0.467080000000     0.146800000000    -0.156803   
N        N      0.647700000000     0.146800000000     0.467080000000    -0.156803   
N        N      0.500900000000     0.320280000000     0.853200000000    -0.156803   
N        N      0.180620000000     0.532920000000     0.679720000000    -0.156803   
N        N      0.999100000000     0.146800000000     0.679720000000    -0.156803   
N        N      0.319380000000     0.320280000000     0.467080000000    -0.156803   
N        N      0.852300000000     0.532920000000     0.853200000000    -0.156803   
O        O      0.496870000000     0.856340000000     0.461050000000    -0.296613   
O        O      0.360980000000     0.891320000000     0.379840000000    -0.296613   
O        O      0.589320000000     0.970530000000     0.460290000000    -0.296613   
O        O      0.449880000000     0.002510000000     0.372090000000    -0.296613   
O        O      0.640530000000     0.604710000000     0.143660000000    -0.296613   
O        O      0.469660000000     0.488520000000     0.108680000000    -0.296613   
O        O      0.618790000000     0.489760000000     0.029470000000    -0.296613   
O        O      0.447370000000     0.369580000000     0.997490000000    -0.296613   
O        O      0.035820000000     0.538950000000     0.395290000000    -0.296613   
O        O      0.981140000000     0.620160000000     0.511480000000    -0.296613   
O        O      0.129030000000     0.539710000000     0.510240000000    -0.296613   
O        O      0.077790000000     0.627910000000     0.630420000000    -0.296613   
O        O      0.859470000000     0.856340000000     0.395290000000    -0.296613   
O        O      0.030340000000     0.891320000000     0.511480000000    -0.296613   
O        O      0.881210000000     0.970530000000     0.510240000000    -0.296613   
O        O      0.052630000000     0.002510000000     0.630420000000    -0.296613   
O        O      0.464180000000     0.604710000000     0.461050000000    -0.296613   
O        O      0.518860000000     0.488520000000     0.379840000000    -0.296613   
O        O      0.370970000000     0.489760000000     0.460290000000    -0.296613   
O        O      0.422210000000     0.369580000000     0.372090000000    -0.296613   
O        O      0.003130000000     0.538950000000     0.143660000000    -0.296613   
O        O      0.139020000000     0.620160000000     0.108680000000    -0.296613   
O        O      0.910680000000     0.539710000000     0.029470000000    -0.296613   
O        O      0.050120000000     0.627910000000     0.997490000000    -0.296613   
O        O      0.503130000000     0.143660000000     0.538950000000    -0.296613   
O        O      0.639020000000     0.108680000000     0.620160000000    -0.296613   
O        O      0.410680000000     0.029470000000     0.539710000000    -0.296613   
O        O      0.550120000000     0.997490000000     0.627910000000    -0.296613   
O        O      0.359470000000     0.395290000000     0.856340000000    -0.296613   
O        O      0.530340000000     0.511480000000     0.891320000000    -0.296613   
O        O      0.381210000000     0.510240000000     0.970530000000    -0.296613   
O        O      0.552630000000     0.630420000000     0.002510000000    -0.296613   
O        O      0.964180000000     0.461050000000     0.604710000000    -0.296613   
O        O      0.018860000000     0.379840000000     0.488520000000    -0.296613   
O        O      0.870970000000     0.460290000000     0.489760000000    -0.296613   
O        O      0.922210000000     0.372090000000     0.369580000000    -0.296613   
O        O      0.140530000000     0.143660000000     0.604710000000    -0.296613   
O        O      0.969660000000     0.108680000000     0.488520000000    -0.296613   
O        O      0.118790000000     0.029470000000     0.489760000000    -0.296613   
O        O      0.947370000000     0.997490000000     0.369580000000    -0.296613   
O        O      0.535820000000     0.395290000000     0.538950000000    -0.296613   
O        O      0.481140000000     0.511480000000     0.620160000000    -0.296613   
O        O      0.629030000000     0.510240000000     0.539710000000    -0.296613   
O        O      0.577790000000     0.630420000000     0.627910000000    -0.296613   
O        O      0.996870000000     0.461050000000     0.856340000000    -0.296613   
O        O      0.860980000000     0.379840000000     0.891320000000    -0.296613   
O        O      0.089320000000     0.460290000000     0.970530000000    -0.296613   
O        O      0.949880000000     0.372090000000     0.002510000000    -0.296613   


