data_BEGBOG_original

_audit_creation_method RASPA-1.0
_audit_creation_date 2022-1-30
_audit_author_name 'Felipe Lopes de Oliveira <felipe.lopes.oliveira@ibm.com>'

_cell_length_a    11.0845
_cell_length_b    11.0845
_cell_length_c    11.0845
_cell_angle_alpha 90
_cell_angle_beta  90
_cell_angle_gamma 90
_cell_volume      1361.91

_symmetry_cell_setting          triclinic
_symmetry_space_group_name_Hall 'P 1'
_symmetry_space_group_name_H-M  'P 1'
_symmetry_Int_Tables_number     1

_symmetry_equiv_pos_as_xyz 'x,y,z'

loop_
_atom_site_label
_atom_site_type_symbol
_atom_site_fract_x
_atom_site_fract_y
_atom_site_fract_z
_atom_site_charge
Na       Na     0.152100000000     0.347900000000     0.652100000000     3.79605    
Na       Na     0.347900000000     0.652100000000     0.152100000000     3.79605    
Na       Na     0.847900000000     0.847900000000     0.847900000000     3.79605    
Na       Na     0.652100000000     0.152100000000     0.347900000000     3.79605    
H        H      0.428800000000     0.343800000000     0.024300000000     0.288643   
H        H      0.350900000000     0.251400000000     0.950900000000     0.288643   
H        H      0.444700000000     0.333500000000     0.884200000000     0.288643   
H        H      0.071200000000     0.656200000000     0.524300000000     0.288643   
H        H      0.149100000000     0.748600000000     0.450900000000     0.288643   
H        H      0.055300000000     0.666500000000     0.384200000000     0.288643   
H        H      0.571200000000     0.843800000000     0.475700000000     0.288643   
H        H      0.649100000000     0.751400000000     0.549100000000     0.288643   
H        H      0.555300000000     0.833500000000     0.615800000000     0.288643   
H        H      0.928800000000     0.156200000000     0.975700000000     0.288643   
H        H      0.850900000000     0.248600000000     0.049100000000     0.288643   
H        H      0.944700000000     0.166500000000     0.115800000000     0.288643   
H        H      0.024300000000     0.428800000000     0.343800000000     0.288643   
H        H      0.950900000000     0.350900000000     0.251400000000     0.288643   
H        H      0.884200000000     0.444700000000     0.333500000000     0.288643   
H        H      0.524300000000     0.071200000000     0.656200000000     0.288643   
H        H      0.450900000000     0.149100000000     0.748600000000     0.288643   
H        H      0.384200000000     0.055300000000     0.666500000000     0.288643   
H        H      0.475700000000     0.571200000000     0.843800000000     0.288643   
H        H      0.549100000000     0.649100000000     0.751400000000     0.288643   
H        H      0.615800000000     0.555300000000     0.833500000000     0.288643   
H        H      0.975700000000     0.928800000000     0.156200000000     0.288643   
H        H      0.049100000000     0.850900000000     0.248600000000     0.288643   
H        H      0.115800000000     0.944700000000     0.166500000000     0.288643   
H        H      0.343800000000     0.024300000000     0.428800000000     0.288643   
H        H      0.251400000000     0.950900000000     0.350900000000     0.288643   
H        H      0.333500000000     0.884200000000     0.444700000000     0.288643   
H        H      0.656200000000     0.524300000000     0.071200000000     0.288643   
H        H      0.748600000000     0.450900000000     0.149100000000     0.288643   
H        H      0.666500000000     0.384200000000     0.055300000000     0.288643   
H        H      0.843800000000     0.475700000000     0.571200000000     0.288643   
H        H      0.751400000000     0.549100000000     0.649100000000     0.288643   
H        H      0.833500000000     0.615800000000     0.555300000000     0.288643   
H        H      0.156200000000     0.975700000000     0.928800000000     0.288643   
H        H      0.248600000000     0.049100000000     0.850900000000     0.288643   
H        H      0.166500000000     0.115800000000     0.944700000000     0.288643   
C        C      0.291900000000     0.424800000000     0.931500000000    -0.144031   
C        C      0.387800000000     0.329700000000     0.949300000000    -0.144031   
C        C      0.208100000000     0.575200000000     0.431500000000    -0.144031   
C        C      0.112200000000     0.670300000000     0.449300000000    -0.144031   
C        C      0.708100000000     0.924800000000     0.568500000000    -0.144031   
C        C      0.612200000000     0.829700000000     0.550700000000    -0.144031   
C        C      0.791900000000     0.075200000000     0.068500000000    -0.144031   
C        C      0.887800000000     0.170300000000     0.050700000000    -0.144031   
C        C      0.931500000000     0.291900000000     0.424800000000    -0.144031   
C        C      0.949300000000     0.387800000000     0.329700000000    -0.144031   
C        C      0.431500000000     0.208100000000     0.575200000000    -0.144031   
C        C      0.449300000000     0.112200000000     0.670300000000    -0.144031   
C        C      0.568500000000     0.708100000000     0.924800000000    -0.144031   
C        C      0.550700000000     0.612200000000     0.829700000000    -0.144031   
C        C      0.068500000000     0.791900000000     0.075200000000    -0.144031   
C        C      0.050700000000     0.887800000000     0.170300000000    -0.144031   
C        C      0.424800000000     0.931500000000     0.291900000000    -0.144031   
C        C      0.329700000000     0.949300000000     0.387800000000    -0.144031   
C        C      0.575200000000     0.431500000000     0.208100000000    -0.144031   
C        C      0.670300000000     0.449300000000     0.112200000000    -0.144031   
C        C      0.924800000000     0.568500000000     0.708100000000    -0.144031   
C        C      0.829700000000     0.550700000000     0.612200000000    -0.144031   
C        C      0.075200000000     0.068500000000     0.791900000000    -0.144031   
C        C      0.170300000000     0.050700000000     0.887800000000    -0.144031   
O        O      0.227900000000     0.422300000000     0.837200000000    -0.92161    
O        O      0.275900000000     0.503900000000     0.012300000000    -0.92161    
O        O      0.272100000000     0.577700000000     0.337200000000    -0.92161    
O        O      0.224100000000     0.496100000000     0.512300000000    -0.92161    
O        O      0.772100000000     0.922300000000     0.662800000000    -0.92161    
O        O      0.724100000000     0.003900000000     0.487700000000    -0.92161    
O        O      0.727900000000     0.077700000000     0.162800000000    -0.92161    
O        O      0.775900000000     0.996100000000     0.987700000000    -0.92161    
O        O      0.837200000000     0.227900000000     0.422300000000    -0.92161    
O        O      0.012300000000     0.275900000000     0.503900000000    -0.92161    
O        O      0.337200000000     0.272100000000     0.577700000000    -0.92161    
O        O      0.512300000000     0.224100000000     0.496100000000    -0.92161    
O        O      0.662800000000     0.772100000000     0.922300000000    -0.92161    
O        O      0.487700000000     0.724100000000     0.003900000000    -0.92161    
O        O      0.162800000000     0.727900000000     0.077700000000    -0.92161    
O        O      0.987700000000     0.775900000000     0.996100000000    -0.92161    
O        O      0.422300000000     0.837200000000     0.227900000000    -0.92161    
O        O      0.503900000000     0.012300000000     0.275900000000    -0.92161    
O        O      0.577700000000     0.337200000000     0.272100000000    -0.92161    
O        O      0.496100000000     0.512300000000     0.224100000000    -0.92161    
O        O      0.922300000000     0.662800000000     0.772100000000    -0.92161    
O        O      0.003900000000     0.487700000000     0.724100000000    -0.92161    
O        O      0.077700000000     0.162800000000     0.727900000000    -0.92161    
O        O      0.996100000000     0.987700000000     0.775900000000    -0.92161    


