data_BENXOJ_original

_audit_creation_method RASPA-1.0
_audit_creation_date 2022-1-29
_audit_author_name 'Felipe Lopes de Oliveira <felipe.lopes.oliveira@ibm.com>'

_cell_length_a    9.1336
_cell_length_b    16.6912
_cell_length_c    20.4432
_cell_angle_alpha 110.023
_cell_angle_beta  90
_cell_angle_gamma 90
_cell_volume      2928.2

_symmetry_cell_setting          triclinic
_symmetry_space_group_name_Hall 'P 1'
_symmetry_space_group_name_H-M  'P 1'
_symmetry_Int_Tables_number     1

_symmetry_equiv_pos_as_xyz 'x,y,z'

loop_
_atom_site_label
_atom_site_type_symbol
_atom_site_fract_x
_atom_site_fract_y
_atom_site_fract_z
_atom_site_charge
Zn       Zn     0.799780000000     0.231910000000     0.338150000000     0.441346   
Zn       Zn     0.799780000000     0.268090000000     0.661850000000     0.441346   
Zn       Zn     0.299780000000     0.231910000000     0.838150000000     0.441346   
Zn       Zn     0.299780000000     0.268090000000     0.161850000000     0.441346   
Zn       Zn     0.200220000000     0.768090000000     0.661850000000     0.441346   
Zn       Zn     0.200220000000     0.731910000000     0.338150000000     0.441346   
Zn       Zn     0.700220000000     0.768090000000     0.161850000000     0.441346   
Zn       Zn     0.700220000000     0.731910000000     0.838150000000     0.441346   
Zn       Zn     0.742540000000     0.250000000000     0.500000000000     0.441346   
Zn       Zn     0.242540000000     0.250000000000     0.000000000000     0.441346   
Zn       Zn     0.257460000000     0.750000000000     0.500000000000     0.441346   
Zn       Zn     0.757460000000     0.750000000000     0.000000000000     0.441346   
H        H      0.387100000000     0.621800000000     0.221600000000     0.137748   
H        H      0.387100000000     0.878200000000     0.778400000000     0.137748   
H        H      0.887100000000     0.621800000000     0.721600000000     0.137748   
H        H      0.887100000000     0.878200000000     0.278400000000     0.137748   
H        H      0.612900000000     0.378200000000     0.778400000000     0.137748   
H        H      0.612900000000     0.121800000000     0.221600000000     0.137748   
H        H      0.112900000000     0.378200000000     0.278400000000     0.137748   
H        H      0.112900000000     0.121800000000     0.721600000000     0.137748   
H        H      0.664700000000     0.966700000000     0.273300000000     0.137748   
H        H      0.664700000000     0.533300000000     0.726700000000     0.137748   
H        H      0.164700000000     0.966700000000     0.773300000000     0.137748   
H        H      0.164700000000     0.533300000000     0.226700000000     0.137748   
H        H      0.335300000000     0.033300000000     0.726700000000     0.137748   
H        H      0.335300000000     0.466700000000     0.273300000000     0.137748   
H        H      0.835300000000     0.033300000000     0.226700000000     0.137748   
H        H      0.835300000000     0.466700000000     0.773300000000     0.137748   
H        H      0.437700000000     0.051000000000     0.453900000000     0.137748   
H        H      0.437700000000     0.449000000000     0.546100000000     0.137748   
H        H      0.937700000000     0.051000000000     0.953900000000     0.137748   
H        H      0.937700000000     0.449000000000     0.046100000000     0.137748   
H        H      0.562300000000     0.949000000000     0.546100000000     0.137748   
H        H      0.562300000000     0.551000000000     0.453900000000     0.137748   
H        H      0.062300000000     0.949000000000     0.046100000000     0.137748   
H        H      0.062300000000     0.551000000000     0.953900000000     0.137748   
H        H      0.321700000000     0.922200000000     0.429800000000     0.137748   
H        H      0.321700000000     0.577800000000     0.570200000000     0.137748   
H        H      0.821700000000     0.922200000000     0.929800000000     0.137748   
H        H      0.821700000000     0.577800000000     0.070200000000     0.137748   
H        H      0.678300000000     0.077800000000     0.570200000000     0.137748   
H        H      0.678300000000     0.422200000000     0.429800000000     0.137748   
H        H      0.178300000000     0.077800000000     0.070200000000     0.137748   
H        H      0.178300000000     0.422200000000     0.929800000000     0.137748   
H        H      0.388800000000     0.695400000000     0.108200000000     0.137748   
H        H      0.388800000000     0.804600000000     0.891800000000     0.137748   
H        H      0.888800000000     0.695400000000     0.608200000000     0.137748   
H        H      0.888800000000     0.804600000000     0.391800000000     0.137748   
H        H      0.611200000000     0.304600000000     0.891800000000     0.137748   
H        H      0.611200000000     0.195400000000     0.108200000000     0.137748   
H        H      0.111200000000     0.304600000000     0.391800000000     0.137748   
H        H      0.111200000000     0.195400000000     0.608200000000     0.137748   
H        H      0.242800000000     0.694900000000     0.148400000000     0.137748   
H        H      0.242800000000     0.805100000000     0.851600000000     0.137748   
H        H      0.742800000000     0.694900000000     0.648400000000     0.137748   
H        H      0.742800000000     0.805100000000     0.351600000000     0.137748   
H        H      0.757200000000     0.305100000000     0.851600000000     0.137748   
H        H      0.757200000000     0.194900000000     0.148400000000     0.137748   
H        H      0.257200000000     0.305100000000     0.351600000000     0.137748   
H        H      0.257200000000     0.194900000000     0.648400000000     0.137748   
H        H      0.312800000000     0.608600000000     0.101300000000     0.137748   
H        H      0.312800000000     0.891400000000     0.898700000000     0.137748   
H        H      0.812800000000     0.608600000000     0.601300000000     0.137748   
H        H      0.812800000000     0.891400000000     0.398700000000     0.137748   
H        H      0.687200000000     0.391400000000     0.898700000000     0.137748   
H        H      0.687200000000     0.108600000000     0.101300000000     0.137748   
H        H      0.187200000000     0.391400000000     0.398700000000     0.137748   
H        H      0.187200000000     0.108600000000     0.601300000000     0.137748   
H        H      0.929500000000     0.321500000000     0.448500000000     0.137748   
H        H      0.929500000000     0.178500000000     0.551500000000     0.137748   
H        H      0.429500000000     0.321500000000     0.948500000000     0.137748   
H        H      0.429500000000     0.178500000000     0.051500000000     0.137748   
H        H      0.070500000000     0.678500000000     0.551500000000     0.137748   
H        H      0.070500000000     0.821500000000     0.448500000000     0.137748   
H        H      0.570500000000     0.678500000000     0.051500000000     0.137748   
H        H      0.570500000000     0.821500000000     0.948500000000     0.137748   
H        H      0.543200000000     0.578300000000     0.143500000000     0.137748   
H        H      0.543200000000     0.921700000000     0.856500000000     0.137748   
H        H      0.043200000000     0.578300000000     0.643500000000     0.137748   
H        H      0.043200000000     0.921700000000     0.356500000000     0.137748   
H        H      0.456800000000     0.421700000000     0.856500000000     0.137748   
H        H      0.456800000000     0.078300000000     0.143500000000     0.137748   
H        H      0.956800000000     0.421700000000     0.356500000000     0.137748   
H        H      0.956800000000     0.078300000000     0.643500000000     0.137748   
C        C      0.427800000000     0.660400000000     0.199400000000    -0.0128893  
C        C      0.427800000000     0.839600000000     0.800600000000    -0.0128893  
C        C      0.927800000000     0.660400000000     0.699400000000    -0.0128893  
C        C      0.927800000000     0.839600000000     0.300600000000    -0.0128893  
C        C      0.572200000000     0.339600000000     0.800600000000    -0.0128893  
C        C      0.572200000000     0.160400000000     0.199400000000    -0.0128893  
C        C      0.072200000000     0.339600000000     0.300600000000    -0.0128893  
C        C      0.072200000000     0.160400000000     0.699400000000    -0.0128893  
C        C      0.453200000000     0.750300000000     0.248200000000    -0.0128893  
C        C      0.453200000000     0.749700000000     0.751800000000    -0.0128893  
C        C      0.953200000000     0.750300000000     0.748200000000    -0.0128893  
C        C      0.953200000000     0.749700000000     0.251800000000    -0.0128893  
C        C      0.546800000000     0.249700000000     0.751800000000    -0.0128893  
C        C      0.546800000000     0.250300000000     0.248200000000    -0.0128893  
C        C      0.046800000000     0.249700000000     0.251800000000    -0.0128893  
C        C      0.046800000000     0.250300000000     0.748200000000    -0.0128893  
C        C      0.529300000000     0.879100000000     0.290800000000    -0.0128893  
C        C      0.529300000000     0.620900000000     0.709200000000    -0.0128893  
C        C      0.029300000000     0.879100000000     0.790800000000    -0.0128893  
C        C      0.029300000000     0.620900000000     0.209200000000    -0.0128893  
C        C      0.470700000000     0.120900000000     0.709200000000    -0.0128893  
C        C      0.470700000000     0.379100000000     0.290800000000    -0.0128893  
C        C      0.970700000000     0.120900000000     0.209200000000    -0.0128893  
C        C      0.970700000000     0.379100000000     0.790800000000    -0.0128893  
C        C      0.425000000000     0.866500000000     0.335800000000    -0.0128893  
C        C      0.425000000000     0.633500000000     0.664200000000    -0.0128893  
C        C      0.925000000000     0.866500000000     0.835800000000    -0.0128893  
C        C      0.925000000000     0.633500000000     0.164200000000    -0.0128893  
C        C      0.575000000000     0.133500000000     0.664200000000    -0.0128893  
C        C      0.575000000000     0.366500000000     0.335800000000    -0.0128893  
C        C      0.075000000000     0.133500000000     0.164200000000    -0.0128893  
C        C      0.075000000000     0.366500000000     0.835800000000    -0.0128893  
C        C      0.598500000000     0.957400000000     0.304500000000    -0.0128893  
C        C      0.598500000000     0.542600000000     0.695500000000    -0.0128893  
C        C      0.098500000000     0.957400000000     0.804500000000    -0.0128893  
C        C      0.098500000000     0.542600000000     0.195500000000    -0.0128893  
C        C      0.401500000000     0.042600000000     0.695500000000    -0.0128893  
C        C      0.401500000000     0.457400000000     0.304500000000    -0.0128893  
C        C      0.901500000000     0.042600000000     0.195500000000    -0.0128893  
C        C      0.901500000000     0.457400000000     0.804500000000    -0.0128893  
C        C      0.459500000000     0.006800000000     0.412800000000    -0.0128893  
C        C      0.459500000000     0.493200000000     0.587200000000    -0.0128893  
C        C      0.959500000000     0.006800000000     0.912800000000    -0.0128893  
C        C      0.959500000000     0.493200000000     0.087200000000    -0.0128893  
C        C      0.540500000000     0.993200000000     0.587200000000    -0.0128893  
C        C      0.540500000000     0.506800000000     0.412800000000    -0.0128893  
C        C      0.040500000000     0.993200000000     0.087200000000    -0.0128893  
C        C      0.040500000000     0.506800000000     0.912800000000    -0.0128893  
C        C      0.638000000000     0.106000000000     0.385400000000    -0.0128893  
C        C      0.638000000000     0.394000000000     0.614600000000    -0.0128893  
C        C      0.138000000000     0.106000000000     0.885400000000    -0.0128893  
C        C      0.138000000000     0.394000000000     0.114600000000    -0.0128893  
C        C      0.362000000000     0.894000000000     0.614600000000    -0.0128893  
C        C      0.362000000000     0.606000000000     0.385400000000    -0.0128893  
C        C      0.862000000000     0.894000000000     0.114600000000    -0.0128893  
C        C      0.862000000000     0.606000000000     0.885400000000    -0.0128893  
C        C      0.563700000000     0.021300000000     0.367300000000    -0.0128893  
C        C      0.563700000000     0.478700000000     0.632700000000    -0.0128893  
C        C      0.063700000000     0.021300000000     0.867300000000    -0.0128893  
C        C      0.063700000000     0.478700000000     0.132700000000    -0.0128893  
C        C      0.436300000000     0.978700000000     0.632700000000    -0.0128893  
C        C      0.436300000000     0.521300000000     0.367300000000    -0.0128893  
C        C      0.936300000000     0.978700000000     0.132700000000    -0.0128893  
C        C      0.936300000000     0.521300000000     0.867300000000    -0.0128893  
C        C      0.389600000000     0.931000000000     0.399000000000    -0.0128893  
C        C      0.389600000000     0.569000000000     0.601000000000    -0.0128893  
C        C      0.889600000000     0.931000000000     0.899000000000    -0.0128893  
C        C      0.889600000000     0.569000000000     0.101000000000    -0.0128893  
C        C      0.610400000000     0.069000000000     0.601000000000    -0.0128893  
C        C      0.610400000000     0.431000000000     0.399000000000    -0.0128893  
C        C      0.110400000000     0.069000000000     0.101000000000    -0.0128893  
C        C      0.110400000000     0.431000000000     0.899000000000    -0.0128893  
C        C      0.333200000000     0.665300000000     0.132300000000    -0.0128893  
C        C      0.333200000000     0.834700000000     0.867700000000    -0.0128893  
C        C      0.833200000000     0.665300000000     0.632300000000    -0.0128893  
C        C      0.833200000000     0.834700000000     0.367700000000    -0.0128893  
C        C      0.666800000000     0.334700000000     0.867700000000    -0.0128893  
C        C      0.666800000000     0.165300000000     0.132300000000    -0.0128893  
C        C      0.166800000000     0.334700000000     0.367700000000    -0.0128893  
C        C      0.166800000000     0.165300000000     0.632300000000    -0.0128893  
N        N      0.545300000000     0.802400000000     0.235300000000    -0.153921   
N        N      0.545300000000     0.697600000000     0.764700000000    -0.153921   
N        N      0.045300000000     0.802400000000     0.735300000000    -0.153921   
N        N      0.045300000000     0.697600000000     0.264700000000    -0.153921   
N        N      0.454700000000     0.197600000000     0.764700000000    -0.153921   
N        N      0.454700000000     0.302400000000     0.235300000000    -0.153921   
N        N      0.954700000000     0.197600000000     0.264700000000    -0.153921   
N        N      0.954700000000     0.302400000000     0.735300000000    -0.153921   
N        N      0.374000000000     0.782700000000     0.307600000000    -0.153921   
N        N      0.374000000000     0.717300000000     0.692400000000    -0.153921   
N        N      0.874000000000     0.782700000000     0.807600000000    -0.153921   
N        N      0.874000000000     0.717300000000     0.192400000000    -0.153921   
N        N      0.626000000000     0.217300000000     0.692400000000    -0.153921   
N        N      0.626000000000     0.282700000000     0.307600000000    -0.153921   
N        N      0.126000000000     0.217300000000     0.192400000000    -0.153921   
N        N      0.126000000000     0.282700000000     0.807600000000    -0.153921   
O        O      0.610000000000     0.160200000000     0.443900000000    -0.366255   
O        O      0.610000000000     0.339800000000     0.556100000000    -0.366255   
O        O      0.110000000000     0.160200000000     0.943900000000    -0.366255   
O        O      0.110000000000     0.339800000000     0.056100000000    -0.366255   
O        O      0.390000000000     0.839800000000     0.556100000000    -0.366255   
O        O      0.390000000000     0.660200000000     0.443900000000    -0.366255   
O        O      0.890000000000     0.839800000000     0.056100000000    -0.366255   
O        O      0.890000000000     0.660200000000     0.943900000000    -0.366255   
O        O      0.723700000000     0.118400000000     0.341800000000    -0.366255   
O        O      0.723700000000     0.381600000000     0.658200000000    -0.366255   
O        O      0.223700000000     0.118400000000     0.841800000000    -0.366255   
O        O      0.223700000000     0.381600000000     0.158200000000    -0.366255   
O        O      0.276300000000     0.881600000000     0.658200000000    -0.366255   
O        O      0.276300000000     0.618400000000     0.341800000000    -0.366255   
O        O      0.776300000000     0.881600000000     0.158200000000    -0.366255   
O        O      0.776300000000     0.618400000000     0.841800000000    -0.366255   
O        O      0.852900000000     0.282600000000     0.434510000000    -0.366255   
O        O      0.852900000000     0.217400000000     0.565490000000    -0.366255   
O        O      0.352900000000     0.282600000000     0.934510000000    -0.366255   
O        O      0.352900000000     0.217400000000     0.065490000000    -0.366255   
O        O      0.147100000000     0.717400000000     0.565490000000    -0.366255   
O        O      0.147100000000     0.782600000000     0.434510000000    -0.366255   
O        O      0.647100000000     0.717400000000     0.065490000000    -0.366255   
O        O      0.647100000000     0.782600000000     0.934510000000    -0.366255   
O        O      0.547500000000     0.630500000000     0.160100000000    -0.366255   
O        O      0.547500000000     0.869500000000     0.839900000000    -0.366255   
O        O      0.047500000000     0.630500000000     0.660100000000    -0.366255   
O        O      0.047500000000     0.869500000000     0.339900000000    -0.366255   
O        O      0.452500000000     0.369500000000     0.839900000000    -0.366255   
O        O      0.452500000000     0.130500000000     0.160100000000    -0.366255   
O        O      0.952500000000     0.369500000000     0.339900000000    -0.366255   
O        O      0.952500000000     0.130500000000     0.660100000000    -0.366255   


