data_BEPLUF_original

_audit_creation_method RASPA-1.0
_audit_creation_date 2022-1-30
_audit_author_name 'Felipe Lopes de Oliveira <felipe.lopes.oliveira@ibm.com>'

_cell_length_a    10.1964
_cell_length_b    17.686
_cell_length_c    17.686
_cell_angle_alpha 120
_cell_angle_beta  90
_cell_angle_gamma 90
_cell_volume      2762.08

_symmetry_cell_setting          triclinic
_symmetry_space_group_name_Hall 'P 1'
_symmetry_space_group_name_H-M  'P 1'
_symmetry_Int_Tables_number     1

_symmetry_equiv_pos_as_xyz 'x,y,z'

loop_
_atom_site_label
_atom_site_type_symbol
_atom_site_fract_x
_atom_site_fract_y
_atom_site_fract_z
_atom_site_charge
Zn       Zn     0.986210000000     0.458830000000     0.533310000000     0.34383    
Zn       Zn     0.652880000000     0.074480000000     0.541170000000     0.34383    
Zn       Zn     0.319540000000     0.466690000000     0.925520000000     0.34383    
Zn       Zn     0.486210000000     0.541170000000     0.466690000000     0.34383    
Zn       Zn     0.152880000000     0.925520000000     0.458830000000     0.34383    
Zn       Zn     0.819540000000     0.533310000000     0.074480000000     0.34383    
H        H      0.204600000000     0.328000000000     0.436000000000     0.0929871  
H        H      0.258600000000     0.185300000000     0.391900000000     0.0929871  
H        H      0.921700000000     0.162700000000     0.490900000000     0.0929871  
H        H      0.874500000000     0.306400000000     0.532400000000     0.0929871  
H        H      0.071700000000     0.024300000000     0.372600000000     0.0929871  
H        H      0.220400000000     0.051100000000     0.390100000000     0.0929871  
H        H      0.254200000000     0.159300000000     0.549600000000     0.0929871  
H        H      0.119100000000     0.189700000000     0.664700000000     0.0929871  
H        H      0.254900000000     0.168000000000     0.690900000000     0.0929871  
H        H      0.142900000000     0.097900000000     0.655500000000     0.0929871  
H        H      0.050200000000     0.074400000000     0.519600000000     0.0929871  
H        H      0.871270000000     0.108000000000     0.672000000000     0.0929871  
H        H      0.925270000000     0.206600000000     0.814700000000     0.0929871  
H        H      0.588370000000     0.328200000000     0.837300000000     0.0929871  
H        H      0.541170000000     0.226000000000     0.693600000000     0.0929871  
H        H      0.738370000000     0.348300000000     0.975700000000     0.0929871  
H        H      0.887070000000     0.339000000000     0.948900000000     0.0929871  
H        H      0.920870000000     0.390300000000     0.840700000000     0.0929871  
H        H      0.785770000000     0.475000000000     0.810300000000     0.0929871  
H        H      0.921570000000     0.522900000000     0.832000000000     0.0929871  
H        H      0.809570000000     0.557600000000     0.902100000000     0.0929871  
H        H      0.716870000000     0.445200000000     0.925600000000     0.0929871  
H        H      0.537930000000     0.564000000000     0.892000000000     0.0929871  
H        H      0.591930000000     0.608100000000     0.793400000000     0.0929871  
H        H      0.255030000000     0.509100000000     0.671800000000     0.0929871  
H        H      0.207830000000     0.467600000000     0.774000000000     0.0929871  
H        H      0.405030000000     0.627400000000     0.651700000000     0.0929871  
H        H      0.553730000000     0.609900000000     0.661000000000     0.0929871  
H        H      0.587530000000     0.450400000000     0.609700000000     0.0929871  
H        H      0.452430000000     0.335300000000     0.525000000000     0.0929871  
H        H      0.588230000000     0.309100000000     0.477100000000     0.0929871  
H        H      0.476230000000     0.344500000000     0.442400000000     0.0929871  
H        H      0.383530000000     0.480400000000     0.554800000000     0.0929871  
H        H      0.704600000000     0.672000000000     0.564000000000     0.0929871  
H        H      0.758600000000     0.814700000000     0.608100000000     0.0929871  
H        H      0.421700000000     0.837300000000     0.509100000000     0.0929871  
H        H      0.374500000000     0.693600000000     0.467600000000     0.0929871  
H        H      0.571700000000     0.975700000000     0.627400000000     0.0929871  
H        H      0.720400000000     0.948900000000     0.609900000000     0.0929871  
H        H      0.754200000000     0.840700000000     0.450400000000     0.0929871  
H        H      0.619100000000     0.810300000000     0.335300000000     0.0929871  
H        H      0.754900000000     0.832000000000     0.309100000000     0.0929871  
H        H      0.642900000000     0.902100000000     0.344500000000     0.0929871  
H        H      0.550200000000     0.925600000000     0.480400000000     0.0929871  
H        H      0.371270000000     0.892000000000     0.328000000000     0.0929871  
H        H      0.425270000000     0.793400000000     0.185300000000     0.0929871  
H        H      0.088370000000     0.671800000000     0.162700000000     0.0929871  
H        H      0.041170000000     0.774000000000     0.306400000000     0.0929871  
H        H      0.238370000000     0.651700000000     0.024300000000     0.0929871  
H        H      0.387070000000     0.661000000000     0.051100000000     0.0929871  
H        H      0.420870000000     0.609700000000     0.159300000000     0.0929871  
H        H      0.285770000000     0.525000000000     0.189700000000     0.0929871  
H        H      0.421570000000     0.477100000000     0.168000000000     0.0929871  
H        H      0.309570000000     0.442400000000     0.097900000000     0.0929871  
H        H      0.216870000000     0.554800000000     0.074400000000     0.0929871  
H        H      0.037930000000     0.436000000000     0.108000000000     0.0929871  
H        H      0.091930000000     0.391900000000     0.206600000000     0.0929871  
H        H      0.755030000000     0.490900000000     0.328200000000     0.0929871  
H        H      0.707830000000     0.532400000000     0.226000000000     0.0929871  
H        H      0.905030000000     0.372600000000     0.348300000000     0.0929871  
H        H      0.053730000000     0.390100000000     0.339000000000     0.0929871  
H        H      0.087530000000     0.549600000000     0.390300000000     0.0929871  
H        H      0.952430000000     0.664700000000     0.475000000000     0.0929871  
H        H      0.088230000000     0.690900000000     0.522900000000     0.0929871  
H        H      0.976230000000     0.655500000000     0.557600000000     0.0929871  
H        H      0.883530000000     0.519600000000     0.445200000000     0.0929871  
C        C      0.146700000000     0.295000000000     0.448400000000    -0.0449265  
C        C      0.180600000000     0.208800000000     0.421800000000    -0.0449265  
C        C      0.096900000000     0.158700000000     0.440400000000    -0.0449265  
C        C      0.982300000000     0.195400000000     0.480000000000    -0.0449265  
C        C      0.953700000000     0.282200000000     0.504800000000    -0.0449265  
C        C      0.133300000000     0.064900000000     0.415700000000    -0.0449265  
C        C      0.232400000000     0.109900000000     0.557700000000    -0.0449265  
C        C      0.356600000000     0.054900000000     0.543600000000    -0.0449265  
C        C      0.182700000000     0.144600000000     0.650800000000    -0.0449265  
C        C      0.813370000000     0.153400000000     0.705000000000    -0.0449265  
C        C      0.847270000000     0.213000000000     0.791200000000    -0.0449265  
C        C      0.763570000000     0.281700000000     0.841300000000    -0.0449265  
C        C      0.648970000000     0.284600000000     0.804600000000    -0.0449265  
C        C      0.620370000000     0.222600000000     0.717800000000    -0.0449265  
C        C      0.799970000000     0.350800000000     0.935100000000    -0.0449265  
C        C      0.899070000000     0.447800000000     0.890100000000    -0.0449265  
C        C      0.023270000000     0.488700000000     0.945100000000    -0.0449265  
C        C      0.849370000000     0.506200000000     0.855400000000    -0.0449265  
C        C      0.480030000000     0.551600000000     0.846600000000    -0.0449265  
C        C      0.513930000000     0.578200000000     0.787000000000    -0.0449265  
C        C      0.430230000000     0.559600000000     0.718300000000    -0.0449265  
C        C      0.315630000000     0.520000000000     0.715400000000    -0.0449265  
C        C      0.287030000000     0.495200000000     0.777400000000    -0.0449265  
C        C      0.466630000000     0.584300000000     0.649200000000    -0.0449265  
C        C      0.565730000000     0.442300000000     0.552200000000    -0.0449265  
C        C      0.689930000000     0.456400000000     0.511300000000    -0.0449265  
C        C      0.516030000000     0.349200000000     0.493800000000    -0.0449265  
C        C      0.646700000000     0.705000000000     0.551600000000    -0.0449265  
C        C      0.680600000000     0.791200000000     0.578200000000    -0.0449265  
C        C      0.596900000000     0.841300000000     0.559600000000    -0.0449265  
C        C      0.482300000000     0.804600000000     0.520000000000    -0.0449265  
C        C      0.453700000000     0.717800000000     0.495200000000    -0.0449265  
C        C      0.633300000000     0.935100000000     0.584300000000    -0.0449265  
C        C      0.732400000000     0.890100000000     0.442300000000    -0.0449265  
C        C      0.856600000000     0.945100000000     0.456400000000    -0.0449265  
C        C      0.682700000000     0.855400000000     0.349200000000    -0.0449265  
C        C      0.313370000000     0.846600000000     0.295000000000    -0.0449265  
C        C      0.347270000000     0.787000000000     0.208800000000    -0.0449265  
C        C      0.263570000000     0.718300000000     0.158700000000    -0.0449265  
C        C      0.148970000000     0.715400000000     0.195400000000    -0.0449265  
C        C      0.120370000000     0.777400000000     0.282200000000    -0.0449265  
C        C      0.299970000000     0.649200000000     0.064900000000    -0.0449265  
C        C      0.399070000000     0.552200000000     0.109900000000    -0.0449265  
C        C      0.523270000000     0.511300000000     0.054900000000    -0.0449265  
C        C      0.349370000000     0.493800000000     0.144600000000    -0.0449265  
C        C      0.980030000000     0.448400000000     0.153400000000    -0.0449265  
C        C      0.013930000000     0.421800000000     0.213000000000    -0.0449265  
C        C      0.930230000000     0.440400000000     0.281700000000    -0.0449265  
C        C      0.815630000000     0.480000000000     0.284600000000    -0.0449265  
C        C      0.787030000000     0.504800000000     0.222600000000    -0.0449265  
C        C      0.966630000000     0.415700000000     0.350800000000    -0.0449265  
C        C      0.065730000000     0.557700000000     0.447800000000    -0.0449265  
C        C      0.189930000000     0.543600000000     0.488700000000    -0.0449265  
C        C      0.016030000000     0.650800000000     0.506200000000    -0.0449265  
N        N      0.130000000000     0.056000000000     0.493800000000    -0.181773   
N        N      0.039300000000     0.331500000000     0.489300000000    -0.181773   
N        N      0.796670000000     0.437800000000     0.944000000000    -0.181773   
N        N      0.705970000000     0.157800000000     0.668500000000    -0.181773   
N        N      0.463330000000     0.506200000000     0.562200000000    -0.181773   
N        N      0.372630000000     0.510700000000     0.842200000000    -0.181773   
N        N      0.630000000000     0.944000000000     0.506200000000    -0.181773   
N        N      0.539300000000     0.668500000000     0.510700000000    -0.181773   
N        N      0.296670000000     0.562200000000     0.056000000000    -0.181773   
N        N      0.205970000000     0.842200000000     0.331500000000    -0.181773   
N        N      0.963330000000     0.493800000000     0.437800000000    -0.181773   
N        N      0.872630000000     0.489300000000     0.157800000000    -0.181773   
O        O      0.350100000000     0.973700000000     0.497100000000    -0.299402   
O        O      0.456000000000     0.098300000000     0.579900000000    -0.299402   
O        O      0.016770000000     0.523400000000     0.026300000000    -0.299402   
O        O      0.122670000000     0.481600000000     0.901700000000    -0.299402   
O        O      0.683430000000     0.502900000000     0.476600000000    -0.299402   
O        O      0.789330000000     0.420100000000     0.518400000000    -0.299402   
O        O      0.850100000000     0.026300000000     0.502900000000    -0.299402   
O        O      0.956000000000     0.901700000000     0.420100000000    -0.299402   
O        O      0.516770000000     0.476600000000     0.973700000000    -0.299402   
O        O      0.622670000000     0.518400000000     0.098300000000    -0.299402   
O        O      0.183430000000     0.497100000000     0.523400000000    -0.299402   
O        O      0.289330000000     0.579900000000     0.481600000000    -0.299402   


