data_BEPMIU_original

_audit_creation_method RASPA-1.0
_audit_creation_date 2022-1-31
_audit_author_name 'Felipe Lopes de Oliveira <felipe.lopes.oliveira@ibm.com>'

_cell_length_a    10.2652
_cell_length_b    17.5285
_cell_length_c    17.5285
_cell_angle_alpha 120
_cell_angle_beta  90
_cell_angle_gamma 90
_cell_volume      2731.41

_symmetry_cell_setting          triclinic
_symmetry_space_group_name_Hall 'P 1'
_symmetry_space_group_name_H-M  'P 1'
_symmetry_Int_Tables_number     1

_symmetry_equiv_pos_as_xyz 'x,y,z'

loop_
_atom_site_label
_atom_site_type_symbol
_atom_site_fract_x
_atom_site_fract_y
_atom_site_fract_z
_atom_site_charge
Zn       Zn     0.006850000000     0.464390000000     0.924590000000     0.436334   
Zn       Zn     0.673520000000     0.460200000000     0.535610000000     0.436334   
Zn       Zn     0.340180000000     0.075410000000     0.539800000000     0.436334   
Zn       Zn     0.506850000000     0.535610000000     0.075410000000     0.436334   
Zn       Zn     0.173520000000     0.539800000000     0.464390000000     0.436334   
Zn       Zn     0.840180000000     0.924590000000     0.460200000000     0.436334   
H        H      0.974900000000     0.426900000000     0.321900000000     0.121216   
H        H      0.930500000000     0.383600000000     0.178700000000     0.121216   
H        H      0.226400000000     0.535000000000     0.181900000000     0.121216   
H        H      0.272200000000     0.567000000000     0.322200000000     0.121216   
H        H      0.110900000000     0.390900000000     0.030500000000     0.121216   
H        H      0.961400000000     0.399100000000     0.051300000000     0.121216   
H        H      0.925200000000     0.569700000000     0.165300000000     0.121216   
H        H      0.042700000000     0.682300000000     0.162200000000     0.121216   
H        H      0.894500000000     0.699400000000     0.155000000000     0.121216   
H        H      0.982600000000     0.658200000000     0.070700000000     0.121216   
H        H      0.114200000000     0.535700000000     0.072900000000     0.121216   
H        H      0.641570000000     0.895000000000     0.573100000000     0.121216   
H        H      0.597170000000     0.795100000000     0.616400000000     0.121216   
H        H      0.893070000000     0.646900000000     0.465000000000     0.121216   
H        H      0.938870000000     0.755200000000     0.433000000000     0.121216   
H        H      0.777570000000     0.639600000000     0.609100000000     0.121216   
H        H      0.628070000000     0.652200000000     0.600900000000     0.121216   
H        H      0.591870000000     0.595600000000     0.430300000000     0.121216   
H        H      0.709370000000     0.479900000000     0.317700000000     0.121216   
H        H      0.561170000000     0.455600000000     0.300600000000     0.121216   
H        H      0.649270000000     0.412500000000     0.341800000000     0.121216   
H        H      0.780870000000     0.537200000000     0.464300000000     0.121216   
H        H      0.308230000000     0.678100000000     0.105000000000     0.121216   
H        H      0.263830000000     0.821300000000     0.204900000000     0.121216   
H        H      0.559730000000     0.818100000000     0.353100000000     0.121216   
H        H      0.605530000000     0.677800000000     0.244800000000     0.121216   
H        H      0.444230000000     0.969500000000     0.360400000000     0.121216   
H        H      0.294730000000     0.948700000000     0.347800000000     0.121216   
H        H      0.258530000000     0.834700000000     0.404400000000     0.121216   
H        H      0.376030000000     0.837800000000     0.520100000000     0.121216   
H        H      0.227830000000     0.845000000000     0.544400000000     0.121216   
H        H      0.315930000000     0.929300000000     0.587500000000     0.121216   
H        H      0.447530000000     0.927100000000     0.462800000000     0.121216   
H        H      0.474900000000     0.573100000000     0.678100000000     0.121216   
H        H      0.430500000000     0.616400000000     0.821300000000     0.121216   
H        H      0.726400000000     0.465000000000     0.818100000000     0.121216   
H        H      0.772200000000     0.433000000000     0.677800000000     0.121216   
H        H      0.610900000000     0.609100000000     0.969500000000     0.121216   
H        H      0.461400000000     0.600900000000     0.948700000000     0.121216   
H        H      0.425200000000     0.430300000000     0.834700000000     0.121216   
H        H      0.542700000000     0.317700000000     0.837800000000     0.121216   
H        H      0.394500000000     0.300600000000     0.845000000000     0.121216   
H        H      0.482600000000     0.341800000000     0.929300000000     0.121216   
H        H      0.614200000000     0.464300000000     0.927100000000     0.121216   
H        H      0.141570000000     0.105000000000     0.426900000000     0.121216   
H        H      0.097170000000     0.204900000000     0.383600000000     0.121216   
H        H      0.393070000000     0.353100000000     0.535000000000     0.121216   
H        H      0.438870000000     0.244800000000     0.567000000000     0.121216   
H        H      0.277570000000     0.360400000000     0.390900000000     0.121216   
H        H      0.128070000000     0.347800000000     0.399100000000     0.121216   
H        H      0.091870000000     0.404400000000     0.569700000000     0.121216   
H        H      0.209370000000     0.520100000000     0.682300000000     0.121216   
H        H      0.061170000000     0.544400000000     0.699400000000     0.121216   
H        H      0.149270000000     0.587500000000     0.658200000000     0.121216   
H        H      0.280870000000     0.462800000000     0.535700000000     0.121216   
H        H      0.808230000000     0.321900000000     0.895000000000     0.121216   
H        H      0.763830000000     0.178700000000     0.795100000000     0.121216   
H        H      0.059730000000     0.181900000000     0.646900000000     0.121216   
H        H      0.105530000000     0.322200000000     0.755200000000     0.121216   
H        H      0.944230000000     0.030500000000     0.639600000000     0.121216   
H        H      0.794730000000     0.051300000000     0.652200000000     0.121216   
H        H      0.758530000000     0.165300000000     0.595600000000     0.121216   
H        H      0.876030000000     0.162200000000     0.479900000000     0.121216   
H        H      0.727830000000     0.155000000000     0.455600000000     0.121216   
H        H      0.815930000000     0.070700000000     0.412500000000     0.121216   
H        H      0.947530000000     0.072900000000     0.537200000000     0.121216   
C        C      0.027400000000     0.447400000000     0.292700000000    -0.0527308  
C        C      0.999100000000     0.422200000000     0.207300000000    -0.0527308  
C        C      0.073400000000     0.454300000000     0.163000000000    -0.0527308  
C        C      0.175800000000     0.510900000000     0.208700000000    -0.0527308  
C        C      0.201400000000     0.530900000000     0.293200000000    -0.0527308  
C        C      0.043800000000     0.430400000000     0.068800000000    -0.0527308  
C        C      0.934100000000     0.568500000000     0.109000000000    -0.0527308  
C        C      0.805100000000     0.538500000000     0.057600000000    -0.0527308  
C        C      0.966400000000     0.660700000000     0.125800000000    -0.0527308  
C        C      0.694070000000     0.845300000000     0.552600000000    -0.0527308  
C        C      0.665770000000     0.785100000000     0.577800000000    -0.0527308  
C        C      0.740070000000     0.708700000000     0.545700000000    -0.0527308  
C        C      0.842470000000     0.697800000000     0.489100000000    -0.0527308  
C        C      0.868070000000     0.762300000000     0.469100000000    -0.0527308  
C        C      0.710470000000     0.638400000000     0.569600000000    -0.0527308  
C        C      0.600770000000     0.540500000000     0.431500000000    -0.0527308  
C        C      0.471770000000     0.519100000000     0.461500000000    -0.0527308  
C        C      0.633070000000     0.465100000000     0.339300000000    -0.0527308  
C        C      0.360730000000     0.707300000000     0.154700000000    -0.0527308  
C        C      0.332430000000     0.792700000000     0.214900000000    -0.0527308  
C        C      0.406730000000     0.837000000000     0.291300000000    -0.0527308  
C        C      0.509130000000     0.791300000000     0.302200000000    -0.0527308  
C        C      0.534730000000     0.706800000000     0.237700000000    -0.0527308  
C        C      0.377130000000     0.931200000000     0.361600000000    -0.0527308  
C        C      0.267430000000     0.891000000000     0.459500000000    -0.0527308  
C        C      0.138430000000     0.942400000000     0.480900000000    -0.0527308  
C        C      0.299730000000     0.874200000000     0.534900000000    -0.0527308  
C        C      0.527400000000     0.552600000000     0.707300000000    -0.0527308  
C        C      0.499100000000     0.577800000000     0.792700000000    -0.0527308  
C        C      0.573400000000     0.545700000000     0.837000000000    -0.0527308  
C        C      0.675800000000     0.489100000000     0.791300000000    -0.0527308  
C        C      0.701400000000     0.469100000000     0.706800000000    -0.0527308  
C        C      0.543800000000     0.569600000000     0.931200000000    -0.0527308  
C        C      0.434100000000     0.431500000000     0.891000000000    -0.0527308  
C        C      0.305100000000     0.461500000000     0.942400000000    -0.0527308  
C        C      0.466400000000     0.339300000000     0.874200000000    -0.0527308  
C        C      0.194070000000     0.154700000000     0.447400000000    -0.0527308  
C        C      0.165770000000     0.214900000000     0.422200000000    -0.0527308  
C        C      0.240070000000     0.291300000000     0.454300000000    -0.0527308  
C        C      0.342470000000     0.302200000000     0.510900000000    -0.0527308  
C        C      0.368070000000     0.237700000000     0.530900000000    -0.0527308  
C        C      0.210470000000     0.361600000000     0.430400000000    -0.0527308  
C        C      0.100770000000     0.459500000000     0.568500000000    -0.0527308  
C        C      0.971770000000     0.480900000000     0.538500000000    -0.0527308  
C        C      0.133070000000     0.534900000000     0.660700000000    -0.0527308  
C        C      0.860730000000     0.292700000000     0.845300000000    -0.0527308  
C        C      0.832430000000     0.207300000000     0.785100000000    -0.0527308  
C        C      0.906730000000     0.163000000000     0.708700000000    -0.0527308  
C        C      0.009130000000     0.208700000000     0.697800000000    -0.0527308  
C        C      0.034730000000     0.293200000000     0.762300000000    -0.0527308  
C        C      0.877130000000     0.068800000000     0.638400000000    -0.0527308  
C        C      0.767430000000     0.109000000000     0.540500000000    -0.0527308  
C        C      0.638430000000     0.057600000000     0.519100000000    -0.0527308  
C        C      0.799730000000     0.125800000000     0.465100000000    -0.0527308  
N        N      0.036500000000     0.506900000000     0.056600000000    -0.185027   
N        N      0.127600000000     0.500300000000     0.336400000000    -0.185027   
N        N      0.703170000000     0.549700000000     0.493100000000    -0.185027   
N        N      0.794270000000     0.836100000000     0.499700000000    -0.185027   
N        N      0.369830000000     0.943400000000     0.450300000000    -0.185027   
N        N      0.460930000000     0.663600000000     0.163900000000    -0.185027   
N        N      0.536500000000     0.493100000000     0.943400000000    -0.185027   
N        N      0.627600000000     0.499700000000     0.663600000000    -0.185027   
N        N      0.203170000000     0.450300000000     0.506900000000    -0.185027   
N        N      0.294270000000     0.163900000000     0.500300000000    -0.185027   
N        N      0.869830000000     0.056600000000     0.549700000000    -0.185027   
N        N      0.960930000000     0.336400000000     0.836100000000    -0.185027   
Cl       Cl     0.997000000000     0.555650000000     0.870540000000    -0.382602   
Cl       Cl     0.663670000000     0.314890000000     0.444350000000    -0.382602   
Cl       Cl     0.330330000000     0.129460000000     0.685110000000    -0.382602   
Cl       Cl     0.497000000000     0.444350000000     0.129460000000    -0.382602   
Cl       Cl     0.163670000000     0.685110000000     0.555650000000    -0.382602   
Cl       Cl     0.830330000000     0.870540000000     0.314890000000    -0.382602   
O        O      0.704000000000     0.569900000000     0.103900000000    -0.271238   
O        O      0.809400000000     0.487400000000     0.977100000000    -0.271238   
O        O      0.370670000000     0.534000000000     0.430100000000    -0.271238   
O        O      0.476070000000     0.489700000000     0.512600000000    -0.271238   
O        O      0.037330000000     0.896100000000     0.466000000000    -0.271238   
O        O      0.142730000000     0.022900000000     0.510300000000    -0.271238   
O        O      0.204000000000     0.430100000000     0.896100000000    -0.271238   
O        O      0.309400000000     0.512600000000     0.022900000000    -0.271238   
O        O      0.870670000000     0.466000000000     0.569900000000    -0.271238   
O        O      0.976070000000     0.510300000000     0.487400000000    -0.271238   
O        O      0.537330000000     0.103900000000     0.534000000000    -0.271238   
O        O      0.642730000000     0.977100000000     0.489700000000    -0.271238   


