data_BEPNIV_original

_audit_creation_method RASPA-1.0
_audit_creation_date 2022-1-31
_audit_author_name 'Felipe Lopes de Oliveira <felipe.lopes.oliveira@ibm.com>'

_cell_length_a    10.1486
_cell_length_b    17.5806
_cell_length_c    17.5806
_cell_angle_alpha 120
_cell_angle_beta  90
_cell_angle_gamma 90
_cell_volume      2716.47

_symmetry_cell_setting          triclinic
_symmetry_space_group_name_Hall 'P 1'
_symmetry_space_group_name_H-M  'P 1'
_symmetry_Int_Tables_number     1

_symmetry_equiv_pos_as_xyz 'x,y,z'

loop_
_atom_site_label
_atom_site_type_symbol
_atom_site_fract_x
_atom_site_fract_y
_atom_site_fract_z
_atom_site_charge
Zn       Zn     0.960180000000     0.466850000000     0.926330000000     0.35295    
Zn       Zn     0.626850000000     0.459480000000     0.533150000000     0.35295    
Zn       Zn     0.293510000000     0.073670000000     0.540520000000     0.35295    
Zn       Zn     0.460180000000     0.533150000000     0.073670000000     0.35295    
Zn       Zn     0.126850000000     0.540520000000     0.466850000000     0.35295    
Zn       Zn     0.793510000000     0.926330000000     0.459480000000     0.35295    
H        H      0.016700000000     0.891900000000     0.326500000000     0.0937749  
H        H      0.673000000000     0.780000000000     0.304500000000     0.0937749  
H        H      0.066700000000     0.796600000000     0.186200000000     0.0937749  
H        H      0.722800000000     0.675800000000     0.160700000000     0.0937749  
H        H      0.952000000000     0.537400000000     0.206100000000     0.0937749  
H        H      0.060600000000     0.468200000000     0.150800000000     0.0937749  
H        H      0.920900000000     0.462300000000     0.110200000000     0.0937749  
H        H      0.870900000000     0.655500000000     0.021000000000     0.0937749  
H        H      0.021100000000     0.666900000000     0.046300000000     0.0937749  
H        H      0.054700000000     0.619700000000     0.161100000000     0.0937749  
H        H      0.683370000000     0.434600000000     0.108100000000     0.0937749  
H        H      0.339670000000     0.524500000000     0.220000000000     0.0937749  
H        H      0.733370000000     0.389600000000     0.203400000000     0.0937749  
H        H      0.389470000000     0.484900000000     0.324200000000     0.0937749  
H        H      0.618670000000     0.668700000000     0.462600000000     0.0937749  
H        H      0.727270000000     0.682600000000     0.531800000000     0.0937749  
H        H      0.587570000000     0.647900000000     0.537700000000     0.0937749  
H        H      0.537570000000     0.365500000000     0.344500000000     0.0937749  
H        H      0.687770000000     0.379400000000     0.333100000000     0.0937749  
H        H      0.721370000000     0.541400000000     0.380300000000     0.0937749  
H        H      0.350030000000     0.673500000000     0.565400000000     0.0937749  
H        H      0.006330000000     0.695500000000     0.475500000000     0.0937749  
H        H      0.400030000000     0.813800000000     0.610400000000     0.0937749  
H        H      0.056130000000     0.839300000000     0.515100000000     0.0937749  
H        H      0.285330000000     0.793900000000     0.331300000000     0.0937749  
H        H      0.393930000000     0.849200000000     0.317400000000     0.0937749  
H        H      0.254230000000     0.889800000000     0.352100000000     0.0937749  
H        H      0.204230000000     0.979000000000     0.634500000000     0.0937749  
H        H      0.354430000000     0.953700000000     0.620600000000     0.0937749  
H        H      0.388030000000     0.838900000000     0.458600000000     0.0937749  
H        H      0.516700000000     0.108100000000     0.673500000000     0.0937749  
H        H      0.173000000000     0.220000000000     0.695500000000     0.0937749  
H        H      0.566700000000     0.203400000000     0.813800000000     0.0937749  
H        H      0.222800000000     0.324200000000     0.839300000000     0.0937749  
H        H      0.452000000000     0.462600000000     0.793900000000     0.0937749  
H        H      0.560600000000     0.531800000000     0.849200000000     0.0937749  
H        H      0.420900000000     0.537700000000     0.889800000000     0.0937749  
H        H      0.370900000000     0.344500000000     0.979000000000     0.0937749  
H        H      0.521100000000     0.333100000000     0.953700000000     0.0937749  
H        H      0.554700000000     0.380300000000     0.838900000000     0.0937749  
H        H      0.183370000000     0.565400000000     0.891900000000     0.0937749  
H        H      0.839670000000     0.475500000000     0.780000000000     0.0937749  
H        H      0.233370000000     0.610400000000     0.796600000000     0.0937749  
H        H      0.889470000000     0.515100000000     0.675800000000     0.0937749  
H        H      0.118670000000     0.331300000000     0.537400000000     0.0937749  
H        H      0.227270000000     0.317400000000     0.468200000000     0.0937749  
H        H      0.087570000000     0.352100000000     0.462300000000     0.0937749  
H        H      0.037570000000     0.634500000000     0.655500000000     0.0937749  
H        H      0.187770000000     0.620600000000     0.666900000000     0.0937749  
H        H      0.221370000000     0.458600000000     0.619700000000     0.0937749  
H        H      0.850030000000     0.326500000000     0.434600000000     0.0937749  
H        H      0.506330000000     0.304500000000     0.524500000000     0.0937749  
H        H      0.900030000000     0.186200000000     0.389600000000     0.0937749  
H        H      0.556130000000     0.160700000000     0.484900000000     0.0937749  
H        H      0.785330000000     0.206100000000     0.668700000000     0.0937749  
H        H      0.893930000000     0.150800000000     0.682600000000     0.0937749  
H        H      0.754230000000     0.110200000000     0.647900000000     0.0937749  
H        H      0.704230000000     0.021000000000     0.365500000000     0.0937749  
H        H      0.854430000000     0.046300000000     0.379400000000     0.0937749  
H        H      0.888030000000     0.161100000000     0.541400000000     0.0937749  
C        C      0.956300000000     0.848100000000     0.292800000000    -0.0478843  
C        C      0.754000000000     0.782500000000     0.281200000000    -0.0478843  
C        C      0.986500000000     0.791300000000     0.208700000000    -0.0478843  
C        C      0.900300000000     0.724900000000     0.154800000000    -0.0478843  
C        C      0.782800000000     0.720400000000     0.193400000000    -0.0478843  
C        C      0.987700000000     0.501600000000     0.148200000000    -0.0478843  
C        C      0.159800000000     0.520900000000     0.058600000000    -0.0478843  
C        C      0.934900000000     0.655000000000     0.061800000000    -0.0478843  
C        C      0.035300000000     0.560900000000     0.112200000000    -0.0478843  
C        C      0.622970000000     0.444700000000     0.151900000000    -0.0478843  
C        C      0.420670000000     0.498700000000     0.217500000000    -0.0478843  
C        C      0.653170000000     0.417400000000     0.208700000000    -0.0478843  
C        C      0.566970000000     0.429900000000     0.275100000000    -0.0478843  
C        C      0.449470000000     0.473000000000     0.279600000000    -0.0478843  
C        C      0.654370000000     0.646600000000     0.498400000000    -0.0478843  
C        C      0.826470000000     0.537700000000     0.479100000000    -0.0478843  
C        C      0.601570000000     0.406800000000     0.345000000000    -0.0478843  
C        C      0.701970000000     0.551300000000     0.439100000000    -0.0478843  
C        C      0.289630000000     0.707200000000     0.555300000000    -0.0478843  
C        C      0.087330000000     0.718800000000     0.501300000000    -0.0478843  
C        C      0.319830000000     0.791300000000     0.582600000000    -0.0478843  
C        C      0.233630000000     0.845200000000     0.570100000000    -0.0478843  
C        C      0.116130000000     0.806600000000     0.527000000000    -0.0478843  
C        C      0.321030000000     0.851800000000     0.353400000000    -0.0478843  
C        C      0.493130000000     0.941400000000     0.462300000000    -0.0478843  
C        C      0.268230000000     0.938200000000     0.593200000000    -0.0478843  
C        C      0.368630000000     0.887800000000     0.448700000000    -0.0478843  
C        C      0.456300000000     0.151900000000     0.707200000000    -0.0478843  
C        C      0.254000000000     0.217500000000     0.718800000000    -0.0478843  
C        C      0.486500000000     0.208700000000     0.791300000000    -0.0478843  
C        C      0.400300000000     0.275100000000     0.845200000000    -0.0478843  
C        C      0.282800000000     0.279600000000     0.806600000000    -0.0478843  
C        C      0.487700000000     0.498400000000     0.851800000000    -0.0478843  
C        C      0.659800000000     0.479100000000     0.941400000000    -0.0478843  
C        C      0.434900000000     0.345000000000     0.938200000000    -0.0478843  
C        C      0.535300000000     0.439100000000     0.887800000000    -0.0478843  
C        C      0.122970000000     0.555300000000     0.848100000000    -0.0478843  
C        C      0.920670000000     0.501300000000     0.782500000000    -0.0478843  
C        C      0.153170000000     0.582600000000     0.791300000000    -0.0478843  
C        C      0.066970000000     0.570100000000     0.724900000000    -0.0478843  
C        C      0.949470000000     0.527000000000     0.720400000000    -0.0478843  
C        C      0.154370000000     0.353400000000     0.501600000000    -0.0478843  
C        C      0.326470000000     0.462300000000     0.520900000000    -0.0478843  
C        C      0.101570000000     0.593200000000     0.655000000000    -0.0478843  
C        C      0.201970000000     0.448700000000     0.560900000000    -0.0478843  
C        C      0.789630000000     0.292800000000     0.444700000000    -0.0478843  
C        C      0.587330000000     0.281200000000     0.498700000000    -0.0478843  
C        C      0.819830000000     0.208700000000     0.417400000000    -0.0478843  
C        C      0.733630000000     0.154800000000     0.429900000000    -0.0478843  
C        C      0.616130000000     0.193400000000     0.473000000000    -0.0478843  
C        C      0.821030000000     0.148200000000     0.646600000000    -0.0478843  
C        C      0.993130000000     0.058600000000     0.537700000000    -0.0478843  
C        C      0.768230000000     0.061800000000     0.406800000000    -0.0478843  
C        C      0.868630000000     0.112200000000     0.551300000000    -0.0478843  
N        N      0.935000000000     0.566800000000     0.055800000000    -0.144479   
N        N      0.840000000000     0.844800000000     0.331900000000    -0.144479   
N        N      0.601670000000     0.489000000000     0.433200000000    -0.144479   
N        N      0.506670000000     0.487100000000     0.155200000000    -0.144479   
N        N      0.268330000000     0.944200000000     0.511000000000    -0.144479   
N        N      0.173330000000     0.668100000000     0.512900000000    -0.144479   
N        N      0.435000000000     0.433200000000     0.944200000000    -0.144479   
N        N      0.340000000000     0.155200000000     0.668100000000    -0.144479   
N        N      0.101670000000     0.511000000000     0.566800000000    -0.144479   
N        N      0.006670000000     0.512900000000     0.844800000000    -0.144479   
N        N      0.768330000000     0.055800000000     0.489000000000    -0.144479   
N        N      0.673330000000     0.331900000000     0.487100000000    -0.144479   
O        O      0.154600000000     0.479900000000     0.976700000000    -0.285391   
O        O      0.263600000000     0.531800000000     0.104300000000    -0.285391   
O        O      0.821270000000     0.496800000000     0.520100000000    -0.285391   
O        O      0.930270000000     0.572500000000     0.468200000000    -0.285391   
O        O      0.487930000000     0.023300000000     0.503200000000    -0.285391   
O        O      0.596930000000     0.895700000000     0.427500000000    -0.285391   
O        O      0.654600000000     0.520100000000     0.023300000000    -0.285391   
O        O      0.763600000000     0.468200000000     0.895700000000    -0.285391   
O        O      0.321270000000     0.503200000000     0.479900000000    -0.285391   
O        O      0.430270000000     0.427500000000     0.531800000000    -0.285391   
O        O      0.987930000000     0.976700000000     0.496800000000    -0.285391   
O        O      0.096930000000     0.104300000000     0.572500000000    -0.285391   


