data_BEPPIX_original

_audit_creation_method RASPA-1.0
_audit_creation_date 2022-1-31
_audit_author_name 'Felipe Lopes de Oliveira <felipe.lopes.oliveira@ibm.com>'

_cell_length_a    10.3953
_cell_length_b    17.4542
_cell_length_c    17.4542
_cell_angle_alpha 120
_cell_angle_beta  90
_cell_angle_gamma 90
_cell_volume      2742.63

_symmetry_cell_setting          triclinic
_symmetry_space_group_name_Hall 'P 1'
_symmetry_space_group_name_H-M  'P 1'
_symmetry_Int_Tables_number     1

_symmetry_equiv_pos_as_xyz 'x,y,z'

loop_
_atom_site_label
_atom_site_type_symbol
_atom_site_fract_x
_atom_site_fract_y
_atom_site_fract_z
_atom_site_charge
Zn       Zn     0.884590000000     0.466620000000     0.928660000000     0.329138   
Zn       Zn     0.551260000000     0.462040000000     0.533380000000     0.329138   
Zn       Zn     0.217920000000     0.071340000000     0.537960000000     0.329138   
Zn       Zn     0.384590000000     0.533380000000     0.071340000000     0.329138   
Zn       Zn     0.051260000000     0.537960000000     0.466620000000     0.329138   
Zn       Zn     0.717920000000     0.928660000000     0.462040000000     0.329138   
H        H      0.789000000000     0.553400000000     0.081000000000     0.195862   
H        H      0.970700000000     0.798800000000     0.179300000000     0.195862   
H        H      0.992500000000     0.628600000000     0.157700000000     0.195862   
H        H      0.923200000000     0.896400000000     0.326200000000     0.195862   
H        H      0.778900000000     0.644500000000     0.021400000000     0.195862   
H        H      0.925600000000     0.665000000000     0.043500000000     0.195862   
H        H      0.635500000000     0.677800000000     0.159500000000     0.195862   
H        H      0.597300000000     0.776800000000     0.306300000000     0.195862   
H        H      0.836300000000     0.423400000000     0.070700000000     0.195862   
H        H      0.866500000000     0.404300000000     0.147600000000     0.195862   
H        H      0.974000000000     0.391900000000     0.079400000000     0.195862   
H        H      0.022300000000     0.520700000000     0.198400000000     0.195862   
H        H      0.877400000000     0.633300000000     0.281500000000     0.195862   
H        H      0.835200000000     0.545800000000     0.278900000000     0.195862   
H        H      0.764500000000     0.576500000000     0.219600000000     0.195862   
H        H      0.455670000000     0.527600000000     0.446600000000     0.195862   
H        H      0.637370000000     0.380500000000     0.201200000000     0.195862   
H        H      0.659170000000     0.529100000000     0.371400000000     0.195862   
H        H      0.589870000000     0.429800000000     0.103600000000     0.195862   
H        H      0.445570000000     0.376900000000     0.355500000000     0.195862   
H        H      0.592270000000     0.378500000000     0.335000000000     0.195862   
H        H      0.302170000000     0.481700000000     0.322200000000     0.195862   
H        H      0.263970000000     0.529500000000     0.223200000000     0.195862   
H        H      0.502970000000     0.647300000000     0.576600000000     0.195862   
H        H      0.533170000000     0.743300000000     0.595700000000     0.195862   
H        H      0.640670000000     0.687500000000     0.608100000000     0.195862   
H        H      0.688970000000     0.677700000000     0.479300000000     0.195862   
H        H      0.544070000000     0.648200000000     0.366700000000     0.195862   
H        H      0.501870000000     0.733100000000     0.454200000000     0.195862   
H        H      0.431170000000     0.643100000000     0.423500000000     0.195862   
H        H      0.122330000000     0.919000000000     0.472400000000     0.195862   
H        H      0.304030000000     0.820700000000     0.619500000000     0.195862   
H        H      0.325830000000     0.842300000000     0.470900000000     0.195862   
H        H      0.256530000000     0.673800000000     0.570200000000     0.195862   
H        H      0.112230000000     0.978600000000     0.623100000000     0.195862   
H        H      0.258930000000     0.956500000000     0.621500000000     0.195862   
H        H      0.968830000000     0.840500000000     0.518300000000     0.195862   
H        H      0.930630000000     0.693700000000     0.470500000000     0.195862   
H        H      0.169630000000     0.929300000000     0.352700000000     0.195862   
H        H      0.199830000000     0.852400000000     0.256700000000     0.195862   
H        H      0.307330000000     0.920600000000     0.312500000000     0.195862   
H        H      0.355630000000     0.801600000000     0.322300000000     0.195862   
H        H      0.210730000000     0.718500000000     0.351800000000     0.195862   
H        H      0.168530000000     0.721100000000     0.266900000000     0.195862   
H        H      0.097830000000     0.780400000000     0.356900000000     0.195862   
H        H      0.289000000000     0.446600000000     0.919000000000     0.195862   
H        H      0.470700000000     0.201200000000     0.820700000000     0.195862   
H        H      0.492500000000     0.371400000000     0.842300000000     0.195862   
H        H      0.423200000000     0.103600000000     0.673800000000     0.195862   
H        H      0.278900000000     0.355500000000     0.978600000000     0.195862   
H        H      0.425600000000     0.335000000000     0.956500000000     0.195862   
H        H      0.135500000000     0.322200000000     0.840500000000     0.195862   
H        H      0.097300000000     0.223200000000     0.693700000000     0.195862   
H        H      0.336300000000     0.576600000000     0.929300000000     0.195862   
H        H      0.366500000000     0.595700000000     0.852400000000     0.195862   
H        H      0.474000000000     0.608100000000     0.920600000000     0.195862   
H        H      0.522300000000     0.479300000000     0.801600000000     0.195862   
H        H      0.377400000000     0.366700000000     0.718500000000     0.195862   
H        H      0.335200000000     0.454200000000     0.721100000000     0.195862   
H        H      0.264500000000     0.423500000000     0.780400000000     0.195862   
H        H      0.955670000000     0.472400000000     0.553400000000     0.195862   
H        H      0.137370000000     0.619500000000     0.798800000000     0.195862   
H        H      0.159170000000     0.470900000000     0.628600000000     0.195862   
H        H      0.089870000000     0.570200000000     0.896400000000     0.195862   
H        H      0.945570000000     0.623100000000     0.644500000000     0.195862   
H        H      0.092270000000     0.621500000000     0.665000000000     0.195862   
H        H      0.802170000000     0.518300000000     0.677800000000     0.195862   
H        H      0.763970000000     0.470500000000     0.776800000000     0.195862   
H        H      0.002970000000     0.352700000000     0.423400000000     0.195862   
H        H      0.033170000000     0.256700000000     0.404300000000     0.195862   
H        H      0.140670000000     0.312500000000     0.391900000000     0.195862   
H        H      0.188970000000     0.322300000000     0.520700000000     0.195862   
H        H      0.044070000000     0.351800000000     0.633300000000     0.195862   
H        H      0.001870000000     0.266900000000     0.545800000000     0.195862   
H        H      0.931170000000     0.356900000000     0.576500000000     0.195862   
H        H      0.622330000000     0.081000000000     0.527600000000     0.195862   
H        H      0.804030000000     0.179300000000     0.380500000000     0.195862   
H        H      0.825830000000     0.157700000000     0.529100000000     0.195862   
H        H      0.756530000000     0.326200000000     0.429800000000     0.195862   
H        H      0.612230000000     0.021400000000     0.376900000000     0.195862   
H        H      0.758930000000     0.043500000000     0.378500000000     0.195862   
H        H      0.468830000000     0.159500000000     0.481700000000     0.195862   
H        H      0.430630000000     0.306300000000     0.529500000000     0.195862   
H        H      0.669630000000     0.070700000000     0.647300000000     0.195862   
H        H      0.699830000000     0.147600000000     0.743300000000     0.195862   
H        H      0.807330000000     0.079400000000     0.687500000000     0.195862   
H        H      0.855630000000     0.198400000000     0.677700000000     0.195862   
H        H      0.710730000000     0.281500000000     0.648200000000     0.195862   
H        H      0.668530000000     0.278900000000     0.733100000000     0.195862   
H        H      0.597830000000     0.219600000000     0.643100000000     0.195862   
C        C      0.090700000000     0.524900000000     0.057600000000    -0.207382   
C        C      0.895600000000     0.792000000000     0.204200000000    -0.207382   
C        C      0.972300000000     0.566500000000     0.116100000000    -0.207382   
C        C      0.865800000000     0.851100000000     0.292400000000    -0.207382   
C        C      0.812000000000     0.723200000000     0.154300000000    -0.207382   
C        C      0.846300000000     0.650000000000     0.062300000000    -0.207382   
C        C      0.696900000000     0.720300000000     0.192800000000    -0.207382   
C        C      0.673600000000     0.780700000000     0.280600000000    -0.207382   
C        C      0.900900000000     0.426700000000     0.111600000000    -0.207382   
C        C      0.941700000000     0.522100000000     0.170000000000    -0.207382   
C        C      0.845800000000     0.574200000000     0.244300000000    -0.207382   
C        C      0.757370000000     0.532700000000     0.475100000000    -0.207382   
C        C      0.562270000000     0.412200000000     0.208000000000    -0.207382   
C        C      0.638970000000     0.549600000000     0.433500000000    -0.207382   
C        C      0.532470000000     0.441300000000     0.148900000000    -0.207382   
C        C      0.478670000000     0.431100000000     0.276800000000    -0.207382   
C        C      0.512970000000     0.412300000000     0.350000000000    -0.207382   
C        C      0.363570000000     0.472500000000     0.279700000000    -0.207382   
C        C      0.340270000000     0.499900000000     0.219300000000    -0.207382   
C        C      0.567570000000     0.684900000000     0.573300000000    -0.207382   
C        C      0.608370000000     0.647900000000     0.477900000000    -0.207382   
C        C      0.512470000000     0.670100000000     0.425800000000    -0.207382   
C        C      0.424030000000     0.942400000000     0.467300000000    -0.207382   
C        C      0.228930000000     0.795800000000     0.587800000000    -0.207382   
C        C      0.305630000000     0.883900000000     0.450400000000    -0.207382   
C        C      0.199130000000     0.707600000000     0.558700000000    -0.207382   
C        C      0.145330000000     0.845700000000     0.568900000000    -0.207382   
C        C      0.179630000000     0.937700000000     0.587700000000    -0.207382   
C        C      0.030230000000     0.807200000000     0.527500000000    -0.207382   
C        C      0.006930000000     0.719400000000     0.500100000000    -0.207382   
C        C      0.234230000000     0.888400000000     0.315100000000    -0.207382   
C        C      0.275030000000     0.830000000000     0.352100000000    -0.207382   
C        C      0.179130000000     0.755700000000     0.329900000000    -0.207382   
C        C      0.590700000000     0.475100000000     0.942400000000    -0.207382   
C        C      0.395600000000     0.208000000000     0.795800000000    -0.207382   
C        C      0.472300000000     0.433500000000     0.883900000000    -0.207382   
C        C      0.365800000000     0.148900000000     0.707600000000    -0.207382   
C        C      0.312000000000     0.276800000000     0.845700000000    -0.207382   
C        C      0.346300000000     0.350000000000     0.937700000000    -0.207382   
C        C      0.196900000000     0.279700000000     0.807200000000    -0.207382   
C        C      0.173600000000     0.219300000000     0.719400000000    -0.207382   
C        C      0.400900000000     0.573300000000     0.888400000000    -0.207382   
C        C      0.441700000000     0.477900000000     0.830000000000    -0.207382   
C        C      0.345800000000     0.425800000000     0.755700000000    -0.207382   
C        C      0.257370000000     0.467300000000     0.524900000000    -0.207382   
C        C      0.062270000000     0.587800000000     0.792000000000    -0.207382   
C        C      0.138970000000     0.450400000000     0.566500000000    -0.207382   
C        C      0.032470000000     0.558700000000     0.851100000000    -0.207382   
C        C      0.978670000000     0.568900000000     0.723200000000    -0.207382   
C        C      0.012970000000     0.587700000000     0.650000000000    -0.207382   
C        C      0.863570000000     0.527500000000     0.720300000000    -0.207382   
C        C      0.840270000000     0.500100000000     0.780700000000    -0.207382   
C        C      0.067570000000     0.315100000000     0.426700000000    -0.207382   
C        C      0.108370000000     0.352100000000     0.522100000000    -0.207382   
C        C      0.012470000000     0.329900000000     0.574200000000    -0.207382   
C        C      0.924030000000     0.057600000000     0.532700000000    -0.207382   
C        C      0.728930000000     0.204200000000     0.412200000000    -0.207382   
C        C      0.805630000000     0.116100000000     0.549600000000    -0.207382   
C        C      0.699130000000     0.292400000000     0.441300000000    -0.207382   
C        C      0.645330000000     0.154300000000     0.431100000000    -0.207382   
C        C      0.679630000000     0.062300000000     0.412300000000    -0.207382   
C        C      0.530230000000     0.192800000000     0.472500000000    -0.207382   
C        C      0.506930000000     0.280600000000     0.499900000000    -0.207382   
C        C      0.734230000000     0.111600000000     0.684900000000    -0.207382   
C        C      0.775030000000     0.170000000000     0.647900000000    -0.207382   
C        C      0.679130000000     0.244300000000     0.670100000000    -0.207382   
N        N      0.757800000000     0.844400000000     0.329700000000    -0.139823   
N        N      0.862300000000     0.564700000000     0.060000000000    -0.139823   
N        N      0.424470000000     0.485300000000     0.155600000000    -0.139823   
N        N      0.528970000000     0.495300000000     0.435300000000    -0.139823   
N        N      0.091130000000     0.670300000000     0.514700000000    -0.139823   
N        N      0.195630000000     0.940000000000     0.504700000000    -0.139823   
N        N      0.257800000000     0.155600000000     0.670300000000    -0.139823   
N        N      0.362300000000     0.435300000000     0.940000000000    -0.139823   
N        N      0.924470000000     0.514700000000     0.844400000000    -0.139823   
N        N      0.028970000000     0.504700000000     0.564700000000    -0.139823   
N        N      0.591130000000     0.329700000000     0.485300000000    -0.139823   
N        N      0.695630000000     0.060000000000     0.495300000000    -0.139823   
O        O      0.192700000000     0.533900000000     0.099300000000    -0.353105   
O        O      0.081000000000     0.486000000000     0.974500000000    -0.353105   
O        O      0.859370000000     0.565400000000     0.466100000000    -0.353105   
O        O      0.747670000000     0.488500000000     0.514000000000    -0.353105   
O        O      0.526030000000     0.900700000000     0.434600000000    -0.353105   
O        O      0.414330000000     0.025500000000     0.511500000000    -0.353105   
O        O      0.692700000000     0.466100000000     0.900700000000    -0.353105   
O        O      0.581000000000     0.514000000000     0.025500000000    -0.353105   
O        O      0.359370000000     0.434600000000     0.533900000000    -0.353105   
O        O      0.247670000000     0.511500000000     0.486000000000    -0.353105   
O        O      0.026030000000     0.099300000000     0.565400000000    -0.353105   
O        O      0.914330000000     0.974500000000     0.488500000000    -0.353105   


