data_BEPPAP_original

_audit_creation_method RASPA-1.0
_audit_creation_date 2022-1-30
_audit_author_name 'Felipe Lopes de Oliveira <felipe.lopes.oliveira@ibm.com>'

_cell_length_a    10.2448
_cell_length_b    17.4587
_cell_length_c    17.4587
_cell_angle_alpha 120
_cell_angle_beta  90
_cell_angle_gamma 90
_cell_volume      2704.32

_symmetry_cell_setting          triclinic
_symmetry_space_group_name_Hall 'P 1'
_symmetry_space_group_name_H-M  'P 1'
_symmetry_Int_Tables_number     1

_symmetry_equiv_pos_as_xyz 'x,y,z'

loop_
_atom_site_label
_atom_site_type_symbol
_atom_site_fract_x
_atom_site_fract_y
_atom_site_fract_z
_atom_site_charge
Zn       Zn     0.845690000000     0.458100000000     0.533130000000     0.436141   
Zn       Zn     0.512360000000     0.075030000000     0.541900000000     0.436141   
Zn       Zn     0.179020000000     0.466870000000     0.924970000000     0.436141   
Zn       Zn     0.345690000000     0.541900000000     0.466870000000     0.436141   
Zn       Zn     0.012360000000     0.924970000000     0.458100000000     0.436141   
Zn       Zn     0.679020000000     0.533130000000     0.075030000000     0.436141   
H        H      0.954200000000     0.535500000000     0.461400000000     0.120261   
H        H      0.879700000000     0.478600000000     0.315200000000     0.120261   
H        H      0.730100000000     0.457800000000     0.298800000000     0.120261   
H        H      0.815300000000     0.411300000000     0.338400000000     0.120261   
H        H      0.766000000000     0.595900000000     0.429300000000     0.120261   
H        H      0.776100000000     0.795700000000     0.619000000000     0.120261   
H        H      0.819200000000     0.896900000000     0.575300000000     0.120261   
H        H      0.068000000000     0.645200000000     0.460600000000     0.120261   
H        H      0.106500000000     0.752900000000     0.424900000000     0.120261   
H        H      0.957100000000     0.637600000000     0.607000000000     0.120261   
H        H      0.806900000000     0.652000000000     0.602300000000     0.120261   
H        H      0.620870000000     0.925900000000     0.464500000000     0.120261   
H        H      0.546370000000     0.836600000000     0.521400000000     0.120261   
H        H      0.396770000000     0.841000000000     0.542200000000     0.120261   
H        H      0.481970000000     0.927100000000     0.588700000000     0.120261   
H        H      0.432670000000     0.833400000000     0.404100000000     0.120261   
H        H      0.442770000000     0.823300000000     0.204300000000     0.120261   
H        H      0.485870000000     0.678400000000     0.103100000000     0.120261   
H        H      0.734670000000     0.815400000000     0.354800000000     0.120261   
H        H      0.773170000000     0.672000000000     0.247100000000     0.120261   
H        H      0.623770000000     0.969400000000     0.362400000000     0.120261   
H        H      0.473570000000     0.950300000000     0.348000000000     0.120261   
H        H      0.287530000000     0.538600000000     0.074100000000     0.120261   
H        H      0.213030000000     0.684800000000     0.163400000000     0.120261   
H        H      0.063430000000     0.701200000000     0.159000000000     0.120261   
H        H      0.148630000000     0.661600000000     0.072900000000     0.120261   
H        H      0.099330000000     0.570700000000     0.166600000000     0.120261   
H        H      0.109430000000     0.381000000000     0.176700000000     0.120261   
H        H      0.152530000000     0.424700000000     0.321600000000     0.120261   
H        H      0.401330000000     0.539400000000     0.184600000000     0.120261   
H        H      0.439830000000     0.575100000000     0.328000000000     0.120261   
H        H      0.290430000000     0.393000000000     0.030600000000     0.120261   
H        H      0.140230000000     0.397700000000     0.049700000000     0.120261   
H        H      0.454200000000     0.464500000000     0.538600000000     0.120261   
H        H      0.379700000000     0.521400000000     0.684800000000     0.120261   
H        H      0.230100000000     0.542200000000     0.701200000000     0.120261   
H        H      0.315300000000     0.588700000000     0.661600000000     0.120261   
H        H      0.266000000000     0.404100000000     0.570700000000     0.120261   
H        H      0.276100000000     0.204300000000     0.381000000000     0.120261   
H        H      0.319200000000     0.103100000000     0.424700000000     0.120261   
H        H      0.568000000000     0.354800000000     0.539400000000     0.120261   
H        H      0.606500000000     0.247100000000     0.575100000000     0.120261   
H        H      0.457100000000     0.362400000000     0.393000000000     0.120261   
H        H      0.306900000000     0.348000000000     0.397700000000     0.120261   
H        H      0.120870000000     0.074100000000     0.535500000000     0.120261   
H        H      0.046370000000     0.163400000000     0.478600000000     0.120261   
H        H      0.896770000000     0.159000000000     0.457800000000     0.120261   
H        H      0.981970000000     0.072900000000     0.411300000000     0.120261   
H        H      0.932670000000     0.166600000000     0.595900000000     0.120261   
H        H      0.942770000000     0.176700000000     0.795700000000     0.120261   
H        H      0.985870000000     0.321600000000     0.896900000000     0.120261   
H        H      0.234670000000     0.184600000000     0.645200000000     0.120261   
H        H      0.273170000000     0.328000000000     0.752900000000     0.120261   
H        H      0.123770000000     0.030600000000     0.637600000000     0.120261   
H        H      0.973570000000     0.049700000000     0.652000000000     0.120261   
H        H      0.787530000000     0.461400000000     0.925900000000     0.120261   
H        H      0.713030000000     0.315200000000     0.836600000000     0.120261   
H        H      0.563430000000     0.298800000000     0.841000000000     0.120261   
H        H      0.648630000000     0.338400000000     0.927100000000     0.120261   
H        H      0.599330000000     0.429300000000     0.833400000000     0.120261   
H        H      0.609430000000     0.619000000000     0.823300000000     0.120261   
H        H      0.652530000000     0.575300000000     0.678400000000     0.120261   
H        H      0.901330000000     0.460600000000     0.815400000000     0.120261   
H        H      0.939830000000     0.424900000000     0.672000000000     0.120261   
H        H      0.790430000000     0.607000000000     0.969400000000     0.120261   
H        H      0.640230000000     0.602300000000     0.950300000000     0.120261   
C        C      0.802200000000     0.465100000000     0.337100000000    -0.052521   
C        C      0.773000000000     0.540500000000     0.430400000000    -0.052521   
C        C      0.843000000000     0.785300000000     0.579000000000    -0.052521   
C        C      0.870200000000     0.846200000000     0.553100000000    -0.052521   
C        C      0.644200000000     0.523000000000     0.462900000000    -0.052521   
C        C      0.916300000000     0.708000000000     0.544800000000    -0.052521   
C        C      0.017100000000     0.696100000000     0.485200000000    -0.052521   
C        C      0.039100000000     0.760900000000     0.463900000000    -0.052521   
C        C      0.887800000000     0.637600000000     0.569100000000    -0.052521   
C        C      0.468870000000     0.872000000000     0.534900000000    -0.052521   
C        C      0.439670000000     0.889900000000     0.459500000000    -0.052521   
C        C      0.509670000000     0.793700000000     0.214700000000    -0.052521   
C        C      0.536870000000     0.706900000000     0.153800000000    -0.052521   
C        C      0.310870000000     0.939900000000     0.477000000000    -0.052521   
C        C      0.582970000000     0.836800000000     0.292000000000    -0.052521   
C        C      0.683770000000     0.789100000000     0.303900000000    -0.052521   
C        C      0.705770000000     0.703000000000     0.239100000000    -0.052521   
C        C      0.554470000000     0.931500000000     0.362400000000    -0.052521   
C        C      0.135530000000     0.662900000000     0.128000000000    -0.052521   
C        C      0.106330000000     0.569600000000     0.110100000000    -0.052521   
C        C      0.176330000000     0.421000000000     0.206300000000    -0.052521   
C        C      0.203530000000     0.446900000000     0.293100000000    -0.052521   
C        C      0.977530000000     0.537100000000     0.060100000000    -0.052521   
C        C      0.249630000000     0.455200000000     0.163200000000    -0.052521   
C        C      0.350430000000     0.514800000000     0.210900000000    -0.052521   
C        C      0.372430000000     0.536100000000     0.297000000000    -0.052521   
C        C      0.221130000000     0.430900000000     0.068500000000    -0.052521   
C        C      0.302200000000     0.534900000000     0.662900000000    -0.052521   
C        C      0.273000000000     0.459500000000     0.569600000000    -0.052521   
C        C      0.343000000000     0.214700000000     0.421000000000    -0.052521   
C        C      0.370200000000     0.153800000000     0.446900000000    -0.052521   
C        C      0.144200000000     0.477000000000     0.537100000000    -0.052521   
C        C      0.416300000000     0.292000000000     0.455200000000    -0.052521   
C        C      0.517100000000     0.303900000000     0.514800000000    -0.052521   
C        C      0.539100000000     0.239100000000     0.536100000000    -0.052521   
C        C      0.387800000000     0.362400000000     0.430900000000    -0.052521   
C        C      0.968870000000     0.128000000000     0.465100000000    -0.052521   
C        C      0.939670000000     0.110100000000     0.540500000000    -0.052521   
C        C      0.009670000000     0.206300000000     0.785300000000    -0.052521   
C        C      0.036870000000     0.293100000000     0.846200000000    -0.052521   
C        C      0.810870000000     0.060100000000     0.523000000000    -0.052521   
C        C      0.082970000000     0.163200000000     0.708000000000    -0.052521   
C        C      0.183770000000     0.210900000000     0.696100000000    -0.052521   
C        C      0.205770000000     0.297000000000     0.760900000000    -0.052521   
C        C      0.054470000000     0.068500000000     0.637600000000    -0.052521   
C        C      0.635530000000     0.337100000000     0.872000000000    -0.052521   
C        C      0.606330000000     0.430400000000     0.889900000000    -0.052521   
C        C      0.676330000000     0.579000000000     0.793700000000    -0.052521   
C        C      0.703530000000     0.553100000000     0.706900000000    -0.052521   
C        C      0.477530000000     0.462900000000     0.939900000000    -0.052521   
C        C      0.749630000000     0.544800000000     0.836800000000    -0.052521   
C        C      0.850430000000     0.485200000000     0.789100000000    -0.052521   
C        C      0.872430000000     0.463900000000     0.703000000000    -0.052521   
C        C      0.721130000000     0.569100000000     0.931500000000    -0.052521   
N        N      0.877100000000     0.548800000000     0.491170000000    -0.184129   
N        N      0.967800000000     0.835310000000     0.496900000000    -0.184129   
N        N      0.543770000000     0.942370000000     0.451200000000    -0.184129   
N        N      0.634470000000     0.661590000000     0.164690000000    -0.184129   
N        N      0.210430000000     0.508830000000     0.057630000000    -0.184129   
N        N      0.301130000000     0.503100000000     0.338410000000    -0.184129   
N        N      0.377100000000     0.451200000000     0.508830000000    -0.184129   
N        N      0.467800000000     0.164690000000     0.503100000000    -0.184129   
N        N      0.043770000000     0.057630000000     0.548800000000    -0.184129   
N        N      0.134470000000     0.338410000000     0.835310000000    -0.184129   
N        N      0.710430000000     0.491170000000     0.942370000000    -0.184129   
N        N      0.801130000000     0.496900000000     0.661590000000    -0.184129   
Cl       Cl     0.829730000000     0.312490000000     0.438380000000    -0.381864   
Cl       Cl     0.496400000000     0.125890000000     0.687510000000    -0.381864   
Cl       Cl     0.163060000000     0.561620000000     0.874110000000    -0.381864   
Cl       Cl     0.329730000000     0.687510000000     0.561620000000    -0.381864   
Cl       Cl     0.996400000000     0.874110000000     0.312490000000    -0.381864   
Cl       Cl     0.663060000000     0.438380000000     0.125890000000    -0.381864   
O        O      0.648800000000     0.491140000000     0.513540000000    -0.268101   
O        O      0.542000000000     0.539200000000     0.433710000000    -0.268101   
O        O      0.315470000000     0.022400000000     0.508860000000    -0.268101   
O        O      0.208670000000     0.894510000000     0.460800000000    -0.268101   
O        O      0.982130000000     0.486460000000     0.977600000000    -0.268101   
O        O      0.875330000000     0.566290000000     0.105490000000    -0.268101   
O        O      0.148800000000     0.508860000000     0.486460000000    -0.268101   
O        O      0.042000000000     0.460800000000     0.566290000000    -0.268101   
O        O      0.815470000000     0.977600000000     0.491140000000    -0.268101   
O        O      0.708670000000     0.105490000000     0.539200000000    -0.268101   
O        O      0.482130000000     0.513540000000     0.022400000000    -0.268101   
O        O      0.375330000000     0.433710000000     0.894510000000    -0.268101   


