data_BIBBUL_original

_audit_creation_method RASPA-1.0
_audit_creation_date 2022-1-31
_audit_author_name 'Felipe Lopes de Oliveira <felipe.lopes.oliveira@ibm.com>'

_cell_length_a    8.7076
_cell_length_b    15.686
_cell_length_c    19.368
_cell_angle_alpha 90
_cell_angle_beta  90
_cell_angle_gamma 90
_cell_volume      2645.43

_symmetry_cell_setting          triclinic
_symmetry_space_group_name_Hall 'P 1'
_symmetry_space_group_name_H-M  'P 1'
_symmetry_Int_Tables_number     1

_symmetry_equiv_pos_as_xyz 'x,y,z'

loop_
_atom_site_label
_atom_site_type_symbol
_atom_site_fract_x
_atom_site_fract_y
_atom_site_fract_z
_atom_site_charge
Zn       Zn     0.442950000000     0.037770000000     0.742390000000     0.410258   
Zn       Zn     0.057050000000     0.962230000000     0.242390000000     0.410258   
Zn       Zn     0.557050000000     0.537770000000     0.757610000000     0.410258   
Zn       Zn     0.942950000000     0.462230000000     0.257610000000     0.410258   
H        H      0.071500000000     0.150900000000     0.861400000000     0.112227   
H        H      0.941600000000     0.238400000000     0.936500000000     0.112227   
H        H      0.018900000000     0.241900000000     0.051700000000     0.112227   
H        H      0.524700000000     0.946000000000     0.155100000000     0.112227   
H        H      0.749100000000     0.968900000000     0.094900000000     0.112227   
H        H      0.745500000000     0.046300000000     0.995300000000     0.112227   
H        H      0.516700000000     0.159700000000     0.611500000000     0.112227   
H        H      0.660700000000     0.291500000000     0.620500000000     0.112227   
H        H      0.721100000000     0.219400000000     0.850500000000     0.112227   
H        H      0.602700000000     0.144100000000     0.849700000000     0.112227   
H        H      0.774100000000     0.127800000000     0.828800000000     0.112227   
H        H      0.786500000000     0.376400000000     0.720200000000     0.112227   
H        H      0.759000000000     0.341200000000     0.795000000000     0.112227   
H        H      0.977100000000     0.253600000000     0.784800000000     0.112227   
H        H      0.021900000000     0.349600000000     0.776200000000     0.112227   
H        H      0.981600000000     0.238500000000     0.666000000000     0.112227   
H        H      0.033900000000     0.333500000000     0.659300000000     0.112227   
H        H      0.245700000000     0.250700000000     0.645300000000     0.112227   
H        H      0.211100000000     0.199800000000     0.713200000000     0.112227   
H        H      0.324300000000     0.260700000000     0.827500000000     0.112227   
H        H      0.474300000000     0.388500000000     0.857700000000     0.112227   
H        H      0.415100000000     0.461500000000     0.624700000000     0.112227   
H        H      0.336000000000     0.375200000000     0.604700000000     0.112227   
H        H      0.237500000000     0.450500000000     0.634300000000     0.112227   
H        H      0.428500000000     0.849100000000     0.361400000000     0.112227   
H        H      0.558400000000     0.761600000000     0.436500000000     0.112227   
H        H      0.481100000000     0.758100000000     0.551700000000     0.112227   
H        H      0.975300000000     0.054000000000     0.655100000000     0.112227   
H        H      0.750900000000     0.031100000000     0.594900000000     0.112227   
H        H      0.754500000000     0.953700000000     0.495300000000     0.112227   
H        H      0.983300000000     0.840300000000     0.111500000000     0.112227   
H        H      0.839300000000     0.708500000000     0.120500000000     0.112227   
H        H      0.778900000000     0.780600000000     0.350500000000     0.112227   
H        H      0.897300000000     0.855900000000     0.349700000000     0.112227   
H        H      0.725900000000     0.872200000000     0.328800000000     0.112227   
H        H      0.713500000000     0.623600000000     0.220200000000     0.112227   
H        H      0.741000000000     0.658800000000     0.295000000000     0.112227   
H        H      0.522900000000     0.746400000000     0.284800000000     0.112227   
H        H      0.478100000000     0.650400000000     0.276200000000     0.112227   
H        H      0.518400000000     0.761500000000     0.166000000000     0.112227   
H        H      0.466100000000     0.666500000000     0.159300000000     0.112227   
H        H      0.254300000000     0.749300000000     0.145300000000     0.112227   
H        H      0.288900000000     0.800200000000     0.213200000000     0.112227   
H        H      0.175700000000     0.739300000000     0.327500000000     0.112227   
H        H      0.025700000000     0.611500000000     0.357700000000     0.112227   
H        H      0.084900000000     0.538500000000     0.124700000000     0.112227   
H        H      0.164000000000     0.624800000000     0.104700000000     0.112227   
H        H      0.262500000000     0.549500000000     0.134300000000     0.112227   
H        H      0.928500000000     0.650900000000     0.638600000000     0.112227   
H        H      0.058400000000     0.738400000000     0.563500000000     0.112227   
H        H      0.981100000000     0.741900000000     0.448300000000     0.112227   
H        H      0.475300000000     0.446000000000     0.344900000000     0.112227   
H        H      0.250900000000     0.468900000000     0.405100000000     0.112227   
H        H      0.254500000000     0.546300000000     0.504700000000     0.112227   
H        H      0.483300000000     0.659700000000     0.888500000000     0.112227   
H        H      0.339300000000     0.791500000000     0.879500000000     0.112227   
H        H      0.278900000000     0.719400000000     0.649500000000     0.112227   
H        H      0.397300000000     0.644100000000     0.650300000000     0.112227   
H        H      0.225900000000     0.627800000000     0.671200000000     0.112227   
H        H      0.213500000000     0.876400000000     0.779800000000     0.112227   
H        H      0.241000000000     0.841200000000     0.705000000000     0.112227   
H        H      0.022900000000     0.753600000000     0.715200000000     0.112227   
H        H      0.978100000000     0.849600000000     0.723800000000     0.112227   
H        H      0.018400000000     0.738500000000     0.834000000000     0.112227   
H        H      0.966100000000     0.833500000000     0.840700000000     0.112227   
H        H      0.754300000000     0.750700000000     0.854700000000     0.112227   
H        H      0.788900000000     0.699800000000     0.786800000000     0.112227   
H        H      0.675700000000     0.760700000000     0.672500000000     0.112227   
H        H      0.525700000000     0.888500000000     0.642300000000     0.112227   
H        H      0.584900000000     0.961500000000     0.875300000000     0.112227   
H        H      0.664000000000     0.875200000000     0.895300000000     0.112227   
H        H      0.762500000000     0.950500000000     0.865700000000     0.112227   
H        H      0.571500000000     0.349100000000     0.138600000000     0.112227   
H        H      0.441600000000     0.261600000000     0.063500000000     0.112227   
H        H      0.518900000000     0.258100000000     0.948300000000     0.112227   
H        H      0.024700000000     0.554000000000     0.844900000000     0.112227   
H        H      0.249100000000     0.531100000000     0.905100000000     0.112227   
H        H      0.245500000000     0.453700000000     0.004700000000     0.112227   
H        H      0.016700000000     0.340300000000     0.388500000000     0.112227   
H        H      0.160700000000     0.208500000000     0.379500000000     0.112227   
H        H      0.221100000000     0.280600000000     0.149500000000     0.112227   
H        H      0.102700000000     0.355900000000     0.150300000000     0.112227   
H        H      0.274100000000     0.372200000000     0.171200000000     0.112227   
H        H      0.286500000000     0.123600000000     0.279800000000     0.112227   
H        H      0.259000000000     0.158800000000     0.205000000000     0.112227   
H        H      0.477100000000     0.246400000000     0.215200000000     0.112227   
H        H      0.521900000000     0.150400000000     0.223800000000     0.112227   
H        H      0.481600000000     0.261500000000     0.334000000000     0.112227   
H        H      0.533900000000     0.166500000000     0.340700000000     0.112227   
H        H      0.745700000000     0.249300000000     0.354700000000     0.112227   
H        H      0.711100000000     0.300200000000     0.286800000000     0.112227   
H        H      0.824300000000     0.239300000000     0.172500000000     0.112227   
H        H      0.974300000000     0.111500000000     0.142300000000     0.112227   
H        H      0.915100000000     0.038500000000     0.375300000000     0.112227   
H        H      0.836000000000     0.124800000000     0.395300000000     0.112227   
H        H      0.737500000000     0.049500000000     0.365700000000     0.112227   
C        C      0.297600000000     0.044300000000     0.879300000000    -0.0365161  
C        C      0.218800000000     0.102300000000     0.931000000000    -0.0365161  
C        C      0.099600000000     0.152700000000     0.907700000000    -0.0365161  
C        C      0.022900000000     0.204800000000     0.951700000000    -0.0365161  
C        C      0.070500000000     0.206300000000     0.021100000000    -0.0365161  
C        C      0.258500000000     0.106000000000     0.000800000000    -0.0365161  
C        C      0.392900000000     0.058400000000     0.028400000000    -0.0365161  
C        C      0.386100000000     0.011500000000     0.089300000000    -0.0365161  
C        C      0.523700000000     0.977600000000     0.114500000000    -0.0365161  
C        C      0.656900000000     0.991200000000     0.078700000000    -0.0365161  
C        C      0.654000000000     0.037600000000     0.019100000000    -0.0365161  
C        C      0.237700000000     0.990600000000     0.125900000000    -0.0365161  
C        C      0.566300000000     0.179400000000     0.651000000000    -0.0365161  
C        C      0.646200000000     0.251800000000     0.655500000000    -0.0365161  
C        C      0.654200000000     0.187200000000     0.756000000000    -0.0365161  
C        C      0.691100000000     0.168000000000     0.827300000000    -0.0365161  
C        C      0.797000000000     0.326500000000     0.749400000000    -0.0365161  
C        C      0.967200000000     0.302700000000     0.754700000000    -0.0365161  
C        C      0.040200000000     0.283200000000     0.688400000000    -0.0365161  
C        C      0.205500000000     0.255600000000     0.691900000000    -0.0365161  
C        C      0.346500000000     0.306500000000     0.798700000000    -0.0365161  
C        C      0.429400000000     0.377400000000     0.815100000000    -0.0365161  
C        C      0.360000000000     0.390400000000     0.706100000000    -0.0365161  
C        C      0.335000000000     0.422100000000     0.636600000000    -0.0365161  
C        C      0.202400000000     0.955700000000     0.379300000000    -0.0365161  
C        C      0.281200000000     0.897700000000     0.431000000000    -0.0365161  
C        C      0.400400000000     0.847300000000     0.407700000000    -0.0365161  
C        C      0.477100000000     0.795200000000     0.451700000000    -0.0365161  
C        C      0.429500000000     0.793700000000     0.521100000000    -0.0365161  
C        C      0.241500000000     0.894000000000     0.500800000000    -0.0365161  
C        C      0.107100000000     0.941600000000     0.528400000000    -0.0365161  
C        C      0.113900000000     0.988500000000     0.589300000000    -0.0365161  
C        C      0.976300000000     0.022400000000     0.614500000000    -0.0365161  
C        C      0.843100000000     0.008800000000     0.578700000000    -0.0365161  
C        C      0.846000000000     0.962400000000     0.519100000000    -0.0365161  
C        C      0.262300000000     0.009400000000     0.625900000000    -0.0365161  
C        C      0.933700000000     0.820600000000     0.151000000000    -0.0365161  
C        C      0.853800000000     0.748200000000     0.155500000000    -0.0365161  
C        C      0.845800000000     0.812800000000     0.256000000000    -0.0365161  
C        C      0.808900000000     0.832000000000     0.327300000000    -0.0365161  
C        C      0.703000000000     0.673500000000     0.249400000000    -0.0365161  
C        C      0.532800000000     0.697300000000     0.254700000000    -0.0365161  
C        C      0.459800000000     0.716800000000     0.188400000000    -0.0365161  
C        C      0.294500000000     0.744400000000     0.191900000000    -0.0365161  
C        C      0.153500000000     0.693500000000     0.298700000000    -0.0365161  
C        C      0.070600000000     0.622600000000     0.315100000000    -0.0365161  
C        C      0.140000000000     0.609600000000     0.206100000000    -0.0365161  
C        C      0.165000000000     0.577900000000     0.136600000000    -0.0365161  
C        C      0.702400000000     0.544300000000     0.620700000000    -0.0365161  
C        C      0.781200000000     0.602300000000     0.569000000000    -0.0365161  
C        C      0.900400000000     0.652700000000     0.592300000000    -0.0365161  
C        C      0.977100000000     0.704800000000     0.548300000000    -0.0365161  
C        C      0.929500000000     0.706300000000     0.478900000000    -0.0365161  
C        C      0.741500000000     0.606000000000     0.499200000000    -0.0365161  
C        C      0.607100000000     0.558400000000     0.471600000000    -0.0365161  
C        C      0.613900000000     0.511500000000     0.410700000000    -0.0365161  
C        C      0.476300000000     0.477600000000     0.385500000000    -0.0365161  
C        C      0.343100000000     0.491200000000     0.421300000000    -0.0365161  
C        C      0.346000000000     0.537600000000     0.480900000000    -0.0365161  
C        C      0.762300000000     0.490600000000     0.374100000000    -0.0365161  
C        C      0.433700000000     0.679400000000     0.849000000000    -0.0365161  
C        C      0.353800000000     0.751800000000     0.844500000000    -0.0365161  
C        C      0.345800000000     0.687200000000     0.744000000000    -0.0365161  
C        C      0.308900000000     0.668000000000     0.672700000000    -0.0365161  
C        C      0.203000000000     0.826500000000     0.750600000000    -0.0365161  
C        C      0.032800000000     0.802700000000     0.745300000000    -0.0365161  
C        C      0.959800000000     0.783200000000     0.811600000000    -0.0365161  
C        C      0.794500000000     0.755600000000     0.808100000000    -0.0365161  
C        C      0.653500000000     0.806500000000     0.701300000000    -0.0365161  
C        C      0.570600000000     0.877400000000     0.684900000000    -0.0365161  
C        C      0.640000000000     0.890400000000     0.793900000000    -0.0365161  
C        C      0.665000000000     0.922100000000     0.863400000000    -0.0365161  
C        C      0.797600000000     0.455700000000     0.120700000000    -0.0365161  
C        C      0.718800000000     0.397700000000     0.069000000000    -0.0365161  
C        C      0.599600000000     0.347300000000     0.092300000000    -0.0365161  
C        C      0.522900000000     0.295200000000     0.048300000000    -0.0365161  
C        C      0.570500000000     0.293700000000     0.978900000000    -0.0365161  
C        C      0.758500000000     0.394000000000     0.999200000000    -0.0365161  
C        C      0.892900000000     0.441600000000     0.971600000000    -0.0365161  
C        C      0.886100000000     0.488500000000     0.910700000000    -0.0365161  
C        C      0.023700000000     0.522400000000     0.885500000000    -0.0365161  
C        C      0.156900000000     0.508800000000     0.921300000000    -0.0365161  
C        C      0.154000000000     0.462400000000     0.980900000000    -0.0365161  
C        C      0.737700000000     0.509400000000     0.874100000000    -0.0365161  
C        C      0.066300000000     0.320600000000     0.349000000000    -0.0365161  
C        C      0.146200000000     0.248200000000     0.344500000000    -0.0365161  
C        C      0.154200000000     0.312800000000     0.244000000000    -0.0365161  
C        C      0.191100000000     0.332000000000     0.172700000000    -0.0365161  
C        C      0.297000000000     0.173500000000     0.250600000000    -0.0365161  
C        C      0.467200000000     0.197300000000     0.245300000000    -0.0365161  
C        C      0.540200000000     0.216800000000     0.311600000000    -0.0365161  
C        C      0.705500000000     0.244400000000     0.308100000000    -0.0365161  
C        C      0.846500000000     0.193500000000     0.201300000000    -0.0365161  
C        C      0.929400000000     0.122600000000     0.184900000000    -0.0365161  
C        C      0.860000000000     0.109600000000     0.293900000000    -0.0365161  
C        C      0.835000000000     0.077900000000     0.363400000000    -0.0365161  
N        N      0.568700000000     0.138900000000     0.713100000000    -0.175357   
N        N      0.702700000000     0.256900000000     0.720900000000    -0.175357   
N        N      0.435800000000     0.430200000000     0.757800000000    -0.175357   
N        N      0.302600000000     0.316000000000     0.731600000000    -0.175357   
N        N      0.525300000000     0.071000000000     0.993700000000    -0.175357   
N        N      0.187300000000     0.158500000000     0.045200000000    -0.175357   
N        N      0.931300000000     0.861100000000     0.213100000000    -0.175357   
N        N      0.797300000000     0.743100000000     0.220900000000    -0.175357   
N        N      0.064200000000     0.569800000000     0.257800000000    -0.175357   
N        N      0.197400000000     0.684000000000     0.231600000000    -0.175357   
N        N      0.974700000000     0.929000000000     0.493700000000    -0.175357   
N        N      0.312700000000     0.841500000000     0.545200000000    -0.175357   
N        N      0.431300000000     0.638900000000     0.786900000000    -0.175357   
N        N      0.297300000000     0.756900000000     0.779100000000    -0.175357   
N        N      0.564200000000     0.930200000000     0.742200000000    -0.175357   
N        N      0.697400000000     0.816000000000     0.768400000000    -0.175357   
N        N      0.474700000000     0.571000000000     0.506300000000    -0.175357   
N        N      0.812700000000     0.658500000000     0.454800000000    -0.175357   
N        N      0.068700000000     0.361100000000     0.286900000000    -0.175357   
N        N      0.202700000000     0.243100000000     0.279100000000    -0.175357   
N        N      0.935800000000     0.069800000000     0.242200000000    -0.175357   
N        N      0.802600000000     0.184000000000     0.268400000000    -0.175357   
N        N      0.025300000000     0.429000000000     0.006300000000    -0.175357   
N        N      0.687300000000     0.341500000000     0.954800000000    -0.175357   
O        O      0.292700000000     0.965900000000     0.885800000000    -0.293794   
O        O      0.355400000000     0.083100000000     0.828800000000    -0.293794   
O        O      0.117100000000     0.983300000000     0.094500000000    -0.293794   
O        O      0.249700000000     0.979900000000     0.191100000000    -0.293794   
O        O      0.207300000000     0.034100000000     0.385800000000    -0.293794   
O        O      0.144600000000     0.916900000000     0.328800000000    -0.293794   
O        O      0.382900000000     0.016700000000     0.594500000000    -0.293794   
O        O      0.250300000000     0.020100000000     0.691100000000    -0.293794   
O        O      0.707300000000     0.465900000000     0.614200000000    -0.293794   
O        O      0.644600000000     0.583100000000     0.671200000000    -0.293794   
O        O      0.882900000000     0.483300000000     0.405500000000    -0.293794   
O        O      0.750300000000     0.479900000000     0.308900000000    -0.293794   
O        O      0.792700000000     0.534100000000     0.114200000000    -0.293794   
O        O      0.855400000000     0.416900000000     0.171200000000    -0.293794   
O        O      0.617100000000     0.516700000000     0.905500000000    -0.293794   
O        O      0.749700000000     0.520100000000     0.808900000000    -0.293794   


