data_BOLPEY_original

_audit_creation_method RASPA-1.0
_audit_creation_date 2022-1-29
_audit_author_name 'Felipe Lopes de Oliveira <felipe.lopes.oliveira@ibm.com>'

_cell_length_a    14.597
_cell_length_b    17.6689
_cell_length_c    19.0829
_cell_angle_alpha 75.1017
_cell_angle_beta  67.5137
_cell_angle_gamma 65.6022
_cell_volume      4112.6

_symmetry_cell_setting          triclinic
_symmetry_space_group_name_Hall 'P 1'
_symmetry_space_group_name_H-M  'P 1'
_symmetry_Int_Tables_number     1

_symmetry_equiv_pos_as_xyz 'x,y,z'

loop_
_atom_site_label
_atom_site_type_symbol
_atom_site_fract_x
_atom_site_fract_y
_atom_site_fract_z
_atom_site_charge
Zn       Zn     0.111360000000     0.970600000000     0.011840000000     0.441159   
Zn       Zn     0.027390000000     0.819780000000     0.068160000000     0.441159   
Zn       Zn     0.093800000000     0.529400000000     0.488160000000     0.441159   
Zn       Zn     0.915330000000     0.680220000000     0.431840000000     0.441159   
Zn       Zn     0.888640000000     0.029400000000     0.988160000000     0.441159   
Zn       Zn     0.972610000000     0.180220000000     0.931840000000     0.441159   
Zn       Zn     0.906200000000     0.470600000000     0.511840000000     0.441159   
Zn       Zn     0.084670000000     0.319780000000     0.568160000000     0.441159   
Si       Si     0.705620000000     0.533050000000     0.003050000000     1.12047    
Si       Si     0.241720000000     0.966950000000     0.496950000000     1.12047    
Si       Si     0.294380000000     0.466950000000     0.996950000000     1.12047    
Si       Si     0.758280000000     0.033050000000     0.503050000000     1.12047    
H        H      0.047900000000     0.899100000000     0.947100000000     0.0957994  
H        H      0.606100000000     0.710100000000     0.956500000000     0.0957994  
H        H      0.436600000000     0.805500000000     0.967500000000     0.0957994  
H        H      0.318400000000     0.621100000000     0.081300000000     0.0957994  
H        H      0.489700000000     0.527400000000     0.072400000000     0.0957994  
H        H      0.660000000000     0.590100000000     0.855700000000     0.0957994  
H        H      0.738200000000     0.546800000000     0.734400000000     0.0957994  
H        H      0.966500000000     0.353400000000     0.808400000000     0.0957994  
H        H      0.887400000000     0.397600000000     0.927800000000     0.0957994  
H        H      0.906200000000     0.564800000000     0.909000000000     0.0957994  
H        H      0.000400000000     0.637100000000     0.922300000000     0.0957994  
H        H      0.778700000000     0.701400000000     0.125400000000     0.0957994  
H        H      0.684500000000     0.629100000000     0.112100000000     0.0957994  
H        H      0.667100000000     0.411000000000     0.070000000000     0.0957994  
H        H      0.781000000000     0.402000000000     0.069600000000     0.0957994  
H        H      0.675700000000     0.458100000000     0.127300000000     0.0957994  
H        H      0.894100000000     0.600900000000     0.552900000000     0.0957994  
H        H      0.272700000000     0.789900000000     0.543500000000     0.0957994  
H        H      0.209600000000     0.694500000000     0.532500000000     0.0957994  
H        H      0.020800000000     0.878900000000     0.418700000000     0.0957994  
H        H      0.089500000000     0.972600000000     0.427600000000     0.0957994  
H        H      0.105800000000     0.909900000000     0.644300000000     0.0957994  
H        H      0.019400000000     0.953200000000     0.765600000000     0.0957994  
H        H      0.128300000000     0.146600000000     0.691600000000     0.0957994  
H        H      0.212800000000     0.102400000000     0.572200000000     0.0957994  
H        H      0.380000000000     0.935200000000     0.591000000000     0.0957994  
H        H      0.559800000000     0.862900000000     0.577700000000     0.0957994  
H        H      0.605500000000     0.798600000000     0.374600000000     0.0957994  
H        H      0.425700000000     0.870900000000     0.387900000000     0.0957994  
H        H      0.148100000000     0.089000000000     0.430000000000     0.0957994  
H        H      0.252600000000     0.098000000000     0.430400000000     0.0957994  
H        H      0.261100000000     0.041900000000     0.372700000000     0.0957994  
H        H      0.952100000000     0.100900000000     0.052900000000     0.0957994  
H        H      0.393900000000     0.289900000000     0.043500000000     0.0957994  
H        H      0.563400000000     0.194500000000     0.032500000000     0.0957994  
H        H      0.681600000000     0.378900000000     0.918700000000     0.0957994  
H        H      0.510300000000     0.472600000000     0.927600000000     0.0957994  
H        H      0.340000000000     0.409900000000     0.144300000000     0.0957994  
H        H      0.261800000000     0.453200000000     0.265600000000     0.0957994  
H        H      0.033500000000     0.646600000000     0.191600000000     0.0957994  
H        H      0.112600000000     0.602400000000     0.072200000000     0.0957994  
H        H      0.093800000000     0.435200000000     0.091000000000     0.0957994  
H        H      0.999600000000     0.362900000000     0.077700000000     0.0957994  
H        H      0.221300000000     0.298600000000     0.874600000000     0.0957994  
H        H      0.315500000000     0.370900000000     0.887900000000     0.0957994  
H        H      0.332900000000     0.589000000000     0.930000000000     0.0957994  
H        H      0.219000000000     0.598000000000     0.930400000000     0.0957994  
H        H      0.324300000000     0.541900000000     0.872700000000     0.0957994  
H        H      0.105900000000     0.399100000000     0.447100000000     0.0957994  
H        H      0.727300000000     0.210100000000     0.456500000000     0.0957994  
H        H      0.790400000000     0.305500000000     0.467500000000     0.0957994  
H        H      0.979200000000     0.121100000000     0.581300000000     0.0957994  
H        H      0.910500000000     0.027400000000     0.572400000000     0.0957994  
H        H      0.894200000000     0.090100000000     0.355700000000     0.0957994  
H        H      0.980600000000     0.046800000000     0.234400000000     0.0957994  
H        H      0.871700000000     0.853400000000     0.308400000000     0.0957994  
H        H      0.787200000000     0.897600000000     0.427800000000     0.0957994  
H        H      0.620000000000     0.064800000000     0.409000000000     0.0957994  
H        H      0.440200000000     0.137100000000     0.422300000000     0.0957994  
H        H      0.394500000000     0.201400000000     0.625400000000     0.0957994  
H        H      0.574300000000     0.129100000000     0.612100000000     0.0957994  
H        H      0.851900000000     0.911000000000     0.570000000000     0.0957994  
H        H      0.747400000000     0.902000000000     0.569600000000     0.0957994  
H        H      0.738900000000     0.958100000000     0.627300000000     0.0957994  
C        C      0.566270000000     0.608010000000     0.014450000000    -0.0612952  
C        C      0.547480000000     0.692020000000     0.982820000000    -0.0612952  
C        C      0.446960000000     0.748840000000     0.988640000000    -0.0612952  
C        C      0.359600000000     0.722490000000     0.026110000000    -0.0612952  
C        C      0.376770000000     0.639830000000     0.056430000000    -0.0612952  
C        C      0.479400000000     0.583900000000     0.050700000000    -0.0612952  
C        C      0.249610000000     0.784190000000     0.031990000000    -0.0612952  
C        C      0.767030000000     0.499550000000     0.905190000000    -0.0612952  
C        C      0.723200000000     0.542300000000     0.845900000000    -0.0612952  
C        C      0.769660000000     0.516740000000     0.773340000000    -0.0612952  
C        C      0.862050000000     0.447220000000     0.757880000000    -0.0612952  
C        C      0.904640000000     0.402360000000     0.817360000000    -0.0612952  
C        C      0.857200000000     0.428900000000     0.888500000000    -0.0612952  
C        C      0.913840000000     0.420360000000     0.679160000000    -0.0612952  
C        C      0.786500000000     0.590100000000     0.009300000000    -0.0612952  
C        C      0.880400000000     0.592500000000     0.952900000000    -0.0612952  
C        C      0.936300000000     0.635500000000     0.960900000000    -0.0612952  
C        C      0.898400000000     0.676100000000     0.025100000000    -0.0612952  
C        C      0.804600000000     0.673700000000     0.081500000000    -0.0612952  
C        C      0.748700000000     0.630700000000     0.073500000000    -0.0612952  
C        C      0.962200000000     0.729500000000     0.025500000000    -0.0612952  
C        C      0.707600000000     0.440100000000     0.076100000000    -0.0612952  
C        C      0.188730000000     0.891990000000     0.485550000000    -0.0612952  
C        C      0.222320000000     0.807980000000     0.517180000000    -0.0612952  
C        C      0.184440000000     0.751160000000     0.511360000000    -0.0612952  
C        C      0.108200000000     0.777510000000     0.473890000000    -0.0612952  
C        C      0.073030000000     0.860170000000     0.443570000000    -0.0612952  
C        C      0.114000000000     0.916100000000     0.449300000000    -0.0612952  
C        C      0.065790000000     0.715810000000     0.468010000000    -0.0612952  
C        C      0.171770000000     0.000450000000     0.594810000000    -0.0612952  
C        C      0.111400000000     0.957700000000     0.654100000000    -0.0612952  
C        C      0.059740000000     0.983260000000     0.726660000000    -0.0612952  
C        C      0.067150000000     0.052780000000     0.742120000000    -0.0612952  
C        C      0.124360000000     0.097640000000     0.682640000000    -0.0612952  
C        C      0.174600000000     0.071100000000     0.611500000000    -0.0612952  
C        C      0.013360000000     0.079640000000     0.820840000000    -0.0612952  
C        C      0.385900000000     0.909900000000     0.490700000000    -0.0612952  
C        C      0.425800000000     0.907500000000     0.547100000000    -0.0612952  
C        C      0.532700000000     0.864500000000     0.539100000000    -0.0612952  
C        C      0.599600000000     0.823900000000     0.474900000000    -0.0612952  
C        C      0.559800000000     0.826300000000     0.418500000000    -0.0612952  
C        C      0.452900000000     0.869300000000     0.426500000000    -0.0612952  
C        C      0.717200000000     0.770500000000     0.474500000000    -0.0612952  
C        C      0.223800000000     0.059900000000     0.423900000000    -0.0612952  
C        C      0.433730000000     0.391990000000     0.985550000000    -0.0612952  
C        C      0.452520000000     0.307980000000     0.017180000000    -0.0612952  
C        C      0.553040000000     0.251160000000     0.011360000000    -0.0612952  
C        C      0.640400000000     0.277510000000     0.973890000000    -0.0612952  
C        C      0.623230000000     0.360170000000     0.943570000000    -0.0612952  
C        C      0.520600000000     0.416100000000     0.949300000000    -0.0612952  
C        C      0.750390000000     0.215810000000     0.968010000000    -0.0612952  
C        C      0.232970000000     0.500450000000     0.094810000000    -0.0612952  
C        C      0.276800000000     0.457700000000     0.154100000000    -0.0612952  
C        C      0.230340000000     0.483260000000     0.226660000000    -0.0612952  
C        C      0.137950000000     0.552780000000     0.242120000000    -0.0612952  
C        C      0.095360000000     0.597640000000     0.182640000000    -0.0612952  
C        C      0.142800000000     0.571100000000     0.111500000000    -0.0612952  
C        C      0.086160000000     0.579640000000     0.320840000000    -0.0612952  
C        C      0.213500000000     0.409900000000     0.990700000000    -0.0612952  
C        C      0.119600000000     0.407500000000     0.047100000000    -0.0612952  
C        C      0.063700000000     0.364500000000     0.039100000000    -0.0612952  
C        C      0.101600000000     0.323900000000     0.974900000000    -0.0612952  
C        C      0.195400000000     0.326300000000     0.918500000000    -0.0612952  
C        C      0.251300000000     0.369300000000     0.926500000000    -0.0612952  
C        C      0.037800000000     0.270500000000     0.974500000000    -0.0612952  
C        C      0.292400000000     0.559900000000     0.923900000000    -0.0612952  
C        C      0.811270000000     0.108010000000     0.514450000000    -0.0612952  
C        C      0.777680000000     0.192020000000     0.482820000000    -0.0612952  
C        C      0.815560000000     0.248840000000     0.488640000000    -0.0612952  
C        C      0.891800000000     0.222490000000     0.526110000000    -0.0612952  
C        C      0.926970000000     0.139830000000     0.556430000000    -0.0612952  
C        C      0.886000000000     0.083900000000     0.550700000000    -0.0612952  
C        C      0.934210000000     0.284190000000     0.531990000000    -0.0612952  
C        C      0.828230000000     0.999550000000     0.405190000000    -0.0612952  
C        C      0.888600000000     0.042300000000     0.345900000000    -0.0612952  
C        C      0.940260000000     0.016740000000     0.273340000000    -0.0612952  
C        C      0.932850000000     0.947220000000     0.257880000000    -0.0612952  
C        C      0.875640000000     0.902360000000     0.317360000000    -0.0612952  
C        C      0.825400000000     0.928900000000     0.388500000000    -0.0612952  
C        C      0.986640000000     0.920360000000     0.179160000000    -0.0612952  
C        C      0.614100000000     0.090100000000     0.509300000000    -0.0612952  
C        C      0.574200000000     0.092500000000     0.452900000000    -0.0612952  
C        C      0.467300000000     0.135500000000     0.460900000000    -0.0612952  
C        C      0.400400000000     0.176100000000     0.525100000000    -0.0612952  
C        C      0.440200000000     0.173700000000     0.581500000000    -0.0612952  
C        C      0.547100000000     0.130700000000     0.573500000000    -0.0612952  
C        C      0.282800000000     0.229500000000     0.525500000000    -0.0612952  
C        C      0.776200000000     0.940100000000     0.576100000000    -0.0612952  
O        O      0.018770000000     0.918720000000     0.992540000000    -0.31244    
O        O      0.237390000000     0.860060000000     0.016560000000    -0.31244    
O        O      0.178050000000     0.753370000000     0.053990000000    -0.31244    
O        O      0.868920000000     0.460680000000     0.629480000000    -0.31244    
O        O      0.000690000000     0.358750000000     0.669270000000    -0.31244    
O        O      0.036000000000     0.736200000000     0.969800000000    -0.31244    
O        O      0.932770000000     0.759030000000     0.084630000000    -0.31244    
O        O      0.930030000000     0.581280000000     0.507460000000    -0.31244    
O        O      0.114010000000     0.639940000000     0.483440000000    -0.31244    
O        O      0.985410000000     0.746630000000     0.446010000000    -0.31244    
O        O      0.959080000000     0.039320000000     0.870520000000    -0.31244    
O        O      0.028710000000     0.141250000000     0.830730000000    -0.31244    
O        O      0.742000000000     0.763800000000     0.530200000000    -0.31244    
O        O      0.776430000000     0.740970000000     0.415370000000    -0.31244    
O        O      0.981230000000     0.081280000000     0.007460000000    -0.31244    
O        O      0.762610000000     0.139940000000     0.983440000000    -0.31244    
O        O      0.821950000000     0.246630000000     0.946010000000    -0.31244    
O        O      0.131080000000     0.539320000000     0.370520000000    -0.31244    
O        O      0.999310000000     0.641250000000     0.330730000000    -0.31244    
O        O      0.964000000000     0.263800000000     0.030200000000    -0.31244    
O        O      0.067230000000     0.240970000000     0.915370000000    -0.31244    
O        O      0.069970000000     0.418720000000     0.492540000000    -0.31244    
O        O      0.885990000000     0.360060000000     0.516560000000    -0.31244    
O        O      0.014590000000     0.253370000000     0.553990000000    -0.31244    
O        O      0.040920000000     0.960680000000     0.129480000000    -0.31244    
O        O      0.971290000000     0.858750000000     0.169270000000    -0.31244    
O        O      0.258000000000     0.236200000000     0.469800000000    -0.31244    
O        O      0.223570000000     0.259030000000     0.584630000000    -0.31244    


