data_BOMCUB_original

_audit_creation_method RASPA-1.0
_audit_creation_date 2022-1-30
_audit_author_name 'Felipe Lopes de Oliveira <felipe.lopes.oliveira@ibm.com>'

_cell_length_a    9.025
_cell_length_b    9.025
_cell_length_c    11.343
_cell_angle_alpha 90
_cell_angle_beta  90
_cell_angle_gamma 120
_cell_volume      800.116

_symmetry_cell_setting          triclinic
_symmetry_space_group_name_Hall 'P 1'
_symmetry_space_group_name_H-M  'P 1'
_symmetry_Int_Tables_number     1

_symmetry_equiv_pos_as_xyz 'x,y,z'

loop_
_atom_site_label
_atom_site_type_symbol
_atom_site_fract_x
_atom_site_fract_y
_atom_site_fract_z
_atom_site_charge
In       In     0.500000000000     0.000000000000     0.666670000000     2.5559     
In       In     0.500000000000     0.500000000000     0.000000000000     2.5559     
In       In     0.000000000000     0.500000000000     0.333330000000     2.5559     
H        H      0.895800000000     0.972100000000     0.052600000000     0.133507   
H        H      0.104200000000     0.027900000000     0.052600000000     0.133507   
H        H      0.972100000000     0.895800000000     0.947400000000     0.133507   
H        H      0.027900000000     0.104200000000     0.947400000000     0.133507   
H        H      0.076300000000     0.104200000000     0.385930000000     0.133507   
H        H      0.923700000000     0.895800000000     0.385930000000     0.133507   
H        H      0.923700000000     0.027900000000     0.280730000000     0.133507   
H        H      0.076300000000     0.972100000000     0.280730000000     0.133507   
H        H      0.027900000000     0.923700000000     0.719270000000     0.133507   
H        H      0.972100000000     0.076300000000     0.719270000000     0.133507   
H        H      0.104200000000     0.076300000000     0.614070000000     0.133507   
H        H      0.895800000000     0.923700000000     0.614070000000     0.133507   
C        C      0.789050000000     0.210950000000     0.500000000000     0.289988   
C        C      0.690250000000     0.309750000000     0.500000000000     0.289988   
C        C      0.421900000000     0.210950000000     0.833330000000     0.289988   
C        C      0.619500000000     0.309750000000     0.833330000000     0.289988   
C        C      0.789050000000     0.578100000000     0.166670000000     0.289988   
C        C      0.690250000000     0.380500000000     0.166670000000     0.289988   
C        C      0.210950000000     0.789050000000     0.500000000000     0.289988   
C        C      0.309750000000     0.690250000000     0.500000000000     0.289988   
C        C      0.578100000000     0.789050000000     0.833330000000     0.289988   
C        C      0.380500000000     0.690250000000     0.833330000000     0.289988   
C        C      0.210950000000     0.421900000000     0.166670000000     0.289988   
C        C      0.309750000000     0.619500000000     0.166670000000     0.289988   
N        N      0.000000000000     0.000000000000     0.000000000000    -0.294797   
N        N      0.000000000000     0.000000000000     0.333330000000    -0.294797   
N        N      0.000000000000     0.000000000000     0.666670000000    -0.294797   
O        O      0.731900000000     0.078700000000     0.561400000000    -0.494385   
O        O      0.553100000000     0.241400000000     0.555400000000    -0.494385   
O        O      0.346800000000     0.268100000000     0.894730000000    -0.494385   
O        O      0.688300000000     0.446900000000     0.888730000000    -0.494385   
O        O      0.921300000000     0.653200000000     0.228070000000    -0.494385   
O        O      0.758600000000     0.311700000000     0.222070000000    -0.494385   
O        O      0.268100000000     0.921300000000     0.561400000000    -0.494385   
O        O      0.446900000000     0.758600000000     0.555400000000    -0.494385   
O        O      0.653200000000     0.731900000000     0.894730000000    -0.494385   
O        O      0.311700000000     0.553100000000     0.888730000000    -0.494385   
O        O      0.078700000000     0.346800000000     0.228070000000    -0.494385   
O        O      0.241400000000     0.688300000000     0.222070000000    -0.494385   
O        O      0.653200000000     0.921300000000     0.771930000000    -0.494385   
O        O      0.311700000000     0.758600000000     0.777930000000    -0.494385   
O        O      0.078700000000     0.731900000000     0.438600000000    -0.494385   
O        O      0.241400000000     0.553100000000     0.444600000000    -0.494385   
O        O      0.268100000000     0.346800000000     0.105270000000    -0.494385   
O        O      0.446900000000     0.688300000000     0.111270000000    -0.494385   
O        O      0.346800000000     0.078700000000     0.771930000000    -0.494385   
O        O      0.688300000000     0.241400000000     0.777930000000    -0.494385   
O        O      0.921300000000     0.268100000000     0.438600000000    -0.494385   
O        O      0.758600000000     0.446900000000     0.444600000000    -0.494385   
O        O      0.731900000000     0.653200000000     0.105270000000    -0.494385   
O        O      0.553100000000     0.311700000000     0.111270000000    -0.494385   


