data_BONWIL_original

_audit_creation_method RASPA-1.0
_audit_creation_date 2022-1-30
_audit_author_name 'Felipe Lopes de Oliveira <felipe.lopes.oliveira@ibm.com>'

_cell_length_a    9.2732
_cell_length_b    14.3218
_cell_length_c    16.9792
_cell_angle_alpha 98.659
_cell_angle_beta  90
_cell_angle_gamma 108.889
_cell_volume      2106.37

_symmetry_cell_setting          triclinic
_symmetry_space_group_name_Hall 'P 1'
_symmetry_space_group_name_H-M  'P 1'
_symmetry_Int_Tables_number     1

_symmetry_equiv_pos_as_xyz 'x,y,z'

loop_
_atom_site_label
_atom_site_type_symbol
_atom_site_fract_x
_atom_site_fract_y
_atom_site_fract_z
_atom_site_charge
Zn       Zn     0.970350000000     0.346200000000     0.342330000000     0.437572   
Zn       Zn     0.566060000000     0.344740000000     0.549490000000     0.437572   
Zn       Zn     0.624150000000     0.653800000000     0.157670000000     0.437572   
Zn       Zn     0.221320000000     0.655260000000     0.950510000000     0.437572   
Zn       Zn     0.029650000000     0.653800000000     0.657670000000     0.437572   
Zn       Zn     0.433940000000     0.655260000000     0.450510000000     0.437572   
Zn       Zn     0.375850000000     0.346200000000     0.842330000000     0.437572   
Zn       Zn     0.778680000000     0.344740000000     0.049490000000     0.437572   
H        H      0.148500000000     0.255800000000     0.367700000000     0.104168   
H        H      0.067000000000     0.311800000000     0.397200000000     0.104168   
H        H      0.682000000000     0.475000000000     0.325400000000     0.104168   
H        H      0.896100000000     0.593800000000     0.447100000000     0.104168   
H        H      0.038300000000     0.699000000000     0.368300000000     0.104168   
H        H      0.054700000000     0.562000000000     0.256500000000     0.104168   
H        H      0.625200000000     0.262800000000     0.273100000000     0.104168   
H        H      0.466200000000     0.130000000000     0.188200000000     0.104168   
H        H      0.815400000000     0.025000000000     0.151800000000     0.104168   
H        H      0.960900000000     0.158600000000     0.241200000000     0.104168   
H        H      0.171300000000     0.832200000000     0.060000000000     0.104168   
H        H      0.316100000000     0.972200000000     0.144200000000     0.104168   
H        H      0.689200000000     0.936400000000     0.044000000000     0.104168   
H        H      0.534400000000     0.796200000000     0.963300000000     0.104168   
H        H      0.892700000000     0.744200000000     0.132300000000     0.104168   
H        H      0.755200000000     0.688200000000     0.102800000000     0.104168   
H        H      0.207000000000     0.525000000000     0.174600000000     0.104168   
H        H      0.302300000000     0.406200000000     0.052900000000     0.104168   
H        H      0.339300000000     0.301000000000     0.131700000000     0.104168   
H        H      0.492700000000     0.438000000000     0.243500000000     0.104168   
H        H      0.362400000000     0.737200000000     0.226900000000     0.104168   
H        H      0.336200000000     0.870000000000     0.311800000000     0.104168   
H        H      0.790400000000     0.975000000000     0.348200000000     0.104168   
H        H      0.802300000000     0.841400000000     0.258800000000     0.104168   
H        H      0.339100000000     0.167800000000     0.440000000000     0.104168   
H        H      0.343900000000     0.027800000000     0.355800000000     0.104168   
H        H      0.752800000000     0.063600000000     0.456000000000     0.104168   
H        H      0.738200000000     0.203800000000     0.536700000000     0.104168   
H        H      0.851500000000     0.744200000000     0.632300000000     0.104168   
H        H      0.933000000000     0.688200000000     0.602800000000     0.104168   
H        H      0.318000000000     0.525000000000     0.674600000000     0.104168   
H        H      0.103900000000     0.406200000000     0.552900000000     0.104168   
H        H      0.961700000000     0.301000000000     0.631700000000     0.104168   
H        H      0.945300000000     0.438000000000     0.743500000000     0.104168   
H        H      0.374800000000     0.737200000000     0.726900000000     0.104168   
H        H      0.533800000000     0.870000000000     0.811800000000     0.104168   
H        H      0.184600000000     0.975000000000     0.848200000000     0.104168   
H        H      0.039100000000     0.841400000000     0.758800000000     0.104168   
H        H      0.828700000000     0.167800000000     0.940000000000     0.104168   
H        H      0.683900000000     0.027800000000     0.855800000000     0.104168   
H        H      0.310800000000     0.063600000000     0.956000000000     0.104168   
H        H      0.465600000000     0.203800000000     0.036700000000     0.104168   
H        H      0.107300000000     0.255800000000     0.867700000000     0.104168   
H        H      0.244800000000     0.311800000000     0.897200000000     0.104168   
H        H      0.793000000000     0.475000000000     0.825400000000     0.104168   
H        H      0.697700000000     0.593800000000     0.947100000000     0.104168   
H        H      0.660700000000     0.699000000000     0.868300000000     0.104168   
H        H      0.507300000000     0.562000000000     0.756500000000     0.104168   
H        H      0.637600000000     0.262800000000     0.773100000000     0.104168   
H        H      0.663800000000     0.130000000000     0.688200000000     0.104168   
H        H      0.209600000000     0.025000000000     0.651800000000     0.104168   
H        H      0.197700000000     0.158600000000     0.741200000000     0.104168   
H        H      0.660900000000     0.832200000000     0.560000000000     0.104168   
H        H      0.656100000000     0.972200000000     0.644200000000     0.104168   
H        H      0.247200000000     0.936400000000     0.544000000000     0.104168   
H        H      0.261800000000     0.796200000000     0.463300000000     0.104168   
C        C      0.774030000000     0.484060000000     0.358100000000     0.0567783  
C        C      0.838650000000     0.593100000000     0.398400000000     0.0567783  
C        C      0.956820000000     0.641640000000     0.339740000000     0.0567783  
C        C      0.018000000000     0.555800000000     0.310250000000     0.0567783  
C        C      0.735160000000     0.412120000000     0.418230000000     0.0567783  
C        C      0.725230000000     0.646860000000     0.423020000000     0.0567783  
C        C      0.891920000000     0.671040000000     0.267650000000     0.0567783  
C        C      0.148790000000     0.555380000000     0.366180000000     0.0567783  
C        C      0.663750000000     0.213900000000     0.248880000000     0.0567783  
C        C      0.566910000000     0.133820000000     0.197540000000     0.0567783  
C        C      0.620180000000     0.059160000000     0.159830000000     0.0567783  
C        C      0.772430000000     0.071460000000     0.176400000000     0.0567783  
C        C      0.860190000000     0.153180000000     0.229600000000     0.0567783  
C        C      0.276890000000     0.852980000000     0.057220000000     0.0567783  
C        C      0.363330000000     0.937460000000     0.108000000000     0.0567783  
C        C      0.521750000000     0.970300000000     0.104650000000     0.0567783  
C        C      0.584160000000     0.916320000000     0.048930000000     0.0567783  
C        C      0.490060000000     0.831920000000     0.000290000000     0.0567783  
C        C      0.289970000000     0.515940000000     0.141900000000     0.0567783  
C        C      0.245550000000     0.406900000000     0.101600000000     0.0567783  
C        C      0.315180000000     0.358360000000     0.160260000000     0.0567783  
C        C      0.462200000000     0.444200000000     0.189750000000     0.0567783  
C        C      0.323040000000     0.587880000000     0.081770000000     0.0567783  
C        C      0.078370000000     0.353140000000     0.076980000000     0.0567783  
C        C      0.220880000000     0.328960000000     0.232350000000     0.0567783  
C        C      0.593410000000     0.444620000000     0.133820000000     0.0567783  
C        C      0.449850000000     0.786100000000     0.251120000000     0.0567783  
C        C      0.433090000000     0.866180000000     0.302460000000     0.0567783  
C        C      0.561020000000     0.940840000000     0.340170000000     0.0567783  
C        C      0.700970000000     0.928540000000     0.323600000000     0.0567783  
C        C      0.707010000000     0.846820000000     0.270400000000     0.0567783  
C        C      0.423910000000     0.147020000000     0.442780000000     0.0567783  
C        C      0.425870000000     0.062540000000     0.392000000000     0.0567783  
C        C      0.551450000000     0.029700000000     0.395350000000     0.0567783  
C        C      0.667840000000     0.083680000000     0.451070000000     0.0567783  
C        C      0.658140000000     0.168080000000     0.499710000000     0.0567783  
C        C      0.225970000000     0.515940000000     0.641900000000     0.0567783  
C        C      0.161350000000     0.406900000000     0.601600000000     0.0567783  
C        C      0.043180000000     0.358360000000     0.660260000000     0.0567783  
C        C      0.982000000000     0.444200000000     0.689750000000     0.0567783  
C        C      0.264840000000     0.587880000000     0.581770000000     0.0567783  
C        C      0.274770000000     0.353140000000     0.576980000000     0.0567783  
C        C      0.108080000000     0.328960000000     0.732350000000     0.0567783  
C        C      0.851210000000     0.444620000000     0.633820000000     0.0567783  
C        C      0.336250000000     0.786100000000     0.751120000000     0.0567783  
C        C      0.433090000000     0.866180000000     0.802460000000     0.0567783  
C        C      0.379820000000     0.940840000000     0.840170000000     0.0567783  
C        C      0.227570000000     0.928540000000     0.823600000000     0.0567783  
C        C      0.139810000000     0.846820000000     0.770400000000     0.0567783  
C        C      0.723110000000     0.147020000000     0.942780000000     0.0567783  
C        C      0.636670000000     0.062540000000     0.892000000000     0.0567783  
C        C      0.478250000000     0.029700000000     0.895350000000     0.0567783  
C        C      0.415840000000     0.083680000000     0.951070000000     0.0567783  
C        C      0.509940000000     0.168080000000     0.999710000000     0.0567783  
C        C      0.710030000000     0.484060000000     0.858100000000     0.0567783  
C        C      0.754450000000     0.593100000000     0.898400000000     0.0567783  
C        C      0.684820000000     0.641640000000     0.839740000000     0.0567783  
C        C      0.537800000000     0.555800000000     0.810250000000     0.0567783  
C        C      0.676960000000     0.412120000000     0.918230000000     0.0567783  
C        C      0.921630000000     0.646860000000     0.923020000000     0.0567783  
C        C      0.779120000000     0.671040000000     0.767650000000     0.0567783  
C        C      0.406590000000     0.555380000000     0.866180000000     0.0567783  
C        C      0.550150000000     0.213900000000     0.748880000000     0.0567783  
C        C      0.566910000000     0.133820000000     0.697540000000     0.0567783  
C        C      0.438980000000     0.059160000000     0.659830000000     0.0567783  
C        C      0.299030000000     0.071460000000     0.676400000000     0.0567783  
C        C      0.292990000000     0.153180000000     0.729600000000     0.0567783  
C        C      0.576090000000     0.852980000000     0.557220000000     0.0567783  
C        C      0.574130000000     0.937460000000     0.608000000000     0.0567783  
C        C      0.448550000000     0.970300000000     0.604650000000     0.0567783  
C        C      0.332160000000     0.916320000000     0.548930000000     0.0567783  
C        C      0.341860000000     0.831920000000     0.500290000000     0.0567783  
N        N      0.808110000000     0.224620000000     0.265380000000    -0.153915   
N        N      0.338510000000     0.799620000000     0.004130000000    -0.153915   
N        N      0.583490000000     0.775380000000     0.234620000000    -0.153915   
N        N      0.538890000000     0.200380000000     0.495870000000    -0.153915   
N        N      0.191890000000     0.775380000000     0.734620000000    -0.153915   
N        N      0.661490000000     0.200380000000     0.995870000000    -0.153915   
N        N      0.416510000000     0.224620000000     0.765380000000    -0.153915   
N        N      0.461110000000     0.799620000000     0.504130000000    -0.153915   
O        O      0.890300000000     0.465580000000     0.306890000000    -0.304767   
O        O      0.069370000000     0.254740000000     0.389580000000    -0.304767   
O        O      0.811330000000     0.355660000000     0.424910000000    -0.304767   
O        O      0.622740000000     0.415880000000     0.458340000000    -0.304767   
O        O      0.585630000000     0.604020000000     0.400840000000    -0.304767   
O        O      0.777120000000     0.730440000000     0.466200000000    -0.304767   
O        O      0.751300000000     0.636400000000     0.252550000000    -0.304767   
O        O      0.987070000000     0.727340000000     0.228580000000    -0.304767   
O        O      0.262240000000     0.634860000000     0.374290000000    -0.304767   
O        O      0.134680000000     0.481360000000     0.398700000000    -0.304767   
O        O      0.424720000000     0.534420000000     0.193110000000    -0.304767   
O        O      0.814630000000     0.745260000000     0.110420000000    -0.304767   
O        O      0.455670000000     0.644340000000     0.075090000000    -0.304767   
O        O      0.206860000000     0.584120000000     0.041660000000    -0.304767   
O        O      0.981610000000     0.395980000000     0.099160000000    -0.304767   
O        O      0.046680000000     0.269560000000     0.033800000000    -0.304767   
O        O      0.114900000000     0.363600000000     0.247450000000    -0.304767   
O        O      0.259730000000     0.272660000000     0.271420000000    -0.304767   
O        O      0.627380000000     0.365140000000     0.125710000000    -0.304767   
O        O      0.653320000000     0.518640000000     0.101300000000    -0.304767   
O        O      0.109700000000     0.534420000000     0.693110000000    -0.304767   
O        O      0.930630000000     0.745260000000     0.610420000000    -0.304767   
O        O      0.188670000000     0.644340000000     0.575090000000    -0.304767   
O        O      0.377260000000     0.584120000000     0.541660000000    -0.304767   
O        O      0.414370000000     0.395980000000     0.599160000000    -0.304767   
O        O      0.222880000000     0.269560000000     0.533800000000    -0.304767   
O        O      0.248700000000     0.363600000000     0.747450000000    -0.304767   
O        O      0.012930000000     0.272660000000     0.771420000000    -0.304767   
O        O      0.737760000000     0.365140000000     0.625710000000    -0.304767   
O        O      0.865320000000     0.518640000000     0.601300000000    -0.304767   
O        O      0.575280000000     0.465580000000     0.806890000000    -0.304767   
O        O      0.185370000000     0.254740000000     0.889580000000    -0.304767   
O        O      0.544330000000     0.355660000000     0.924910000000    -0.304767   
O        O      0.793140000000     0.415880000000     0.958340000000    -0.304767   
O        O      0.018390000000     0.604020000000     0.900840000000    -0.304767   
O        O      0.953320000000     0.730440000000     0.966200000000    -0.304767   
O        O      0.885100000000     0.636400000000     0.752550000000    -0.304767   
O        O      0.740270000000     0.727340000000     0.728580000000    -0.304767   
O        O      0.372620000000     0.634860000000     0.874290000000    -0.304767   
O        O      0.346680000000     0.481360000000     0.898700000000    -0.304767   


