data_BONWAD_original

_audit_creation_method RASPA-1.0
_audit_creation_date 2022-1-31
_audit_author_name 'Felipe Lopes de Oliveira <felipe.lopes.oliveira@ibm.com>'

_cell_length_a    9.029
_cell_length_b    10.934
_cell_length_c    13.146
_cell_angle_alpha 90.031
_cell_angle_beta  90
_cell_angle_gamma 90
_cell_volume      1297.81

_symmetry_cell_setting          triclinic
_symmetry_space_group_name_Hall 'P 1'
_symmetry_space_group_name_H-M  'P 1'
_symmetry_Int_Tables_number     1

_symmetry_equiv_pos_as_xyz 'x,y,z'

loop_
_atom_site_label
_atom_site_type_symbol
_atom_site_fract_x
_atom_site_fract_y
_atom_site_fract_z
_atom_site_charge
Zn       Zn     0.805830000000     0.105520000000     0.803060000000     0.474057   
Zn       Zn     0.486940000000     0.265470000000     0.071470000000     0.474057   
Zn       Zn     0.305830000000     0.394480000000     0.696940000000     0.474057   
Zn       Zn     0.986940000000     0.234530000000     0.428530000000     0.474057   
Zn       Zn     0.194170000000     0.894480000000     0.196940000000     0.474057   
Zn       Zn     0.513060000000     0.734530000000     0.928530000000     0.474057   
Zn       Zn     0.694170000000     0.605520000000     0.303060000000     0.474057   
Zn       Zn     0.013060000000     0.765470000000     0.571470000000     0.474057   
H        H      0.649500000000     0.937200000000     0.124100000000     0.0855468  
H        H      0.607200000000     0.087300000000     0.297700000000     0.0855468  
H        H      0.897800000000     0.984900000000     0.111600000000     0.0855468  
H        H      0.859400000000     0.216900000000     0.126800000000     0.0855468  
H        H      0.149500000000     0.562800000000     0.375900000000     0.0855468  
H        H      0.107200000000     0.412700000000     0.202300000000     0.0855468  
H        H      0.397800000000     0.515100000000     0.388400000000     0.0855468  
H        H      0.359400000000     0.283100000000     0.373200000000     0.0855468  
H        H      0.350500000000     0.062800000000     0.875900000000     0.0855468  
H        H      0.392800000000     0.912700000000     0.702300000000     0.0855468  
H        H      0.102200000000     0.015100000000     0.888400000000     0.0855468  
H        H      0.140600000000     0.783100000000     0.873200000000     0.0855468  
H        H      0.850500000000     0.437200000000     0.624100000000     0.0855468  
H        H      0.892800000000     0.587300000000     0.797700000000     0.0855468  
H        H      0.602200000000     0.484900000000     0.611600000000     0.0855468  
H        H      0.640600000000     0.716900000000     0.626800000000     0.0855468  
C        C      0.749100000000     0.140780000000     0.003370000000     0.132521   
C        C      0.692100000000     0.968700000000     0.187430000000     0.132521   
C        C      0.435500000000     0.052900000000     0.196480000000     0.132521   
C        C      0.596900000000     0.076730000000     0.224020000000     0.132521   
C        C      0.842000000000     0.032000000000     0.162130000000     0.132521   
C        C      0.785400000000     0.152500000000     0.116750000000     0.132521   
C        C      0.698700000000     0.864700000000     0.264450000000     0.132521   
C        C      0.934700000000     0.054600000000     0.257230000000     0.132521   
C        C      0.249100000000     0.359220000000     0.496630000000     0.132521   
C        C      0.192100000000     0.531300000000     0.312570000000     0.132521   
C        C      0.935500000000     0.447100000000     0.303520000000     0.132521   
C        C      0.096900000000     0.423270000000     0.275980000000     0.132521   
C        C      0.342000000000     0.468000000000     0.337870000000     0.132521   
C        C      0.285400000000     0.347500000000     0.383250000000     0.132521   
C        C      0.198700000000     0.635300000000     0.235550000000     0.132521   
C        C      0.434700000000     0.445400000000     0.242770000000     0.132521   
C        C      0.250900000000     0.859220000000     0.996630000000     0.132521   
C        C      0.307900000000     0.031300000000     0.812570000000     0.132521   
C        C      0.564500000000     0.947100000000     0.803520000000     0.132521   
C        C      0.403100000000     0.923270000000     0.775980000000     0.132521   
C        C      0.158000000000     0.968000000000     0.837870000000     0.132521   
C        C      0.214600000000     0.847500000000     0.883250000000     0.132521   
C        C      0.301300000000     0.135300000000     0.735550000000     0.132521   
C        C      0.065300000000     0.945400000000     0.742770000000     0.132521   
C        C      0.750900000000     0.640780000000     0.503370000000     0.132521   
C        C      0.807900000000     0.468700000000     0.687430000000     0.132521   
C        C      0.064500000000     0.552900000000     0.696480000000     0.132521   
C        C      0.903100000000     0.576730000000     0.724020000000     0.132521   
C        C      0.658000000000     0.532000000000     0.662130000000     0.132521   
C        C      0.714600000000     0.652500000000     0.616750000000     0.132521   
C        C      0.801300000000     0.364700000000     0.764450000000     0.132521   
C        C      0.565300000000     0.554600000000     0.757230000000     0.132521   
O        O      0.652360000000     0.182710000000     0.171550000000    -0.261163   
O        O      0.893640000000     0.138900000000     0.313900000000    -0.261163   
O        O      0.622400000000     0.161720000000     0.971470000000    -0.261163   
O        O      0.858290000000     0.110660000000     0.946860000000    -0.261163   
O        O      0.687300000000     0.758360000000     0.226570000000    -0.261163   
O        O      0.374260000000     0.111860000000     0.127410000000    -0.261163   
O        O      0.045500000000     0.987230000000     0.274630000000    -0.261163   
O        O      0.712700000000     0.886570000000     0.355210000000    -0.261163   
O        O      0.378450000000     0.966260000000     0.245960000000    -0.261163   
O        O      0.152360000000     0.317290000000     0.328450000000    -0.261163   
O        O      0.393640000000     0.361100000000     0.186100000000    -0.261163   
O        O      0.122400000000     0.338280000000     0.528530000000    -0.261163   
O        O      0.358290000000     0.389340000000     0.553140000000    -0.261163   
O        O      0.187300000000     0.741640000000     0.273430000000    -0.261163   
O        O      0.874260000000     0.388140000000     0.372590000000    -0.261163   
O        O      0.545500000000     0.512770000000     0.225370000000    -0.261163   
O        O      0.212700000000     0.613430000000     0.144790000000    -0.261163   
O        O      0.878450000000     0.533740000000     0.254040000000    -0.261163   
O        O      0.347640000000     0.817290000000     0.828450000000    -0.261163   
O        O      0.106360000000     0.861100000000     0.686100000000    -0.261163   
O        O      0.377600000000     0.838280000000     0.028530000000    -0.261163   
O        O      0.141710000000     0.889340000000     0.053140000000    -0.261163   
O        O      0.312700000000     0.241640000000     0.773430000000    -0.261163   
O        O      0.625740000000     0.888140000000     0.872590000000    -0.261163   
O        O      0.954500000000     0.012770000000     0.725370000000    -0.261163   
O        O      0.287300000000     0.113430000000     0.644790000000    -0.261163   
O        O      0.621550000000     0.033740000000     0.754040000000    -0.261163   
O        O      0.847640000000     0.682710000000     0.671550000000    -0.261163   
O        O      0.606360000000     0.638900000000     0.813900000000    -0.261163   
O        O      0.877600000000     0.661720000000     0.471470000000    -0.261163   
O        O      0.641710000000     0.610660000000     0.446860000000    -0.261163   
O        O      0.812700000000     0.258360000000     0.726570000000    -0.261163   
O        O      0.125740000000     0.611860000000     0.627410000000    -0.261163   
O        O      0.454500000000     0.487230000000     0.774630000000    -0.261163   
O        O      0.787300000000     0.386570000000     0.855210000000    -0.261163   
O        O      0.121550000000     0.466260000000     0.745960000000    -0.261163   


