data_BOWQAG_original

_audit_creation_method RASPA-1.0
_audit_creation_date 2022-1-31
_audit_author_name 'Felipe Lopes de Oliveira <felipe.lopes.oliveira@ibm.com>'

_cell_length_a    6.7186
_cell_length_b    17.082
_cell_length_c    17.352
_cell_angle_alpha 90
_cell_angle_beta  98.77
_cell_angle_gamma 90
_cell_volume      1968.16

_symmetry_cell_setting          triclinic
_symmetry_space_group_name_Hall 'P 1'
_symmetry_space_group_name_H-M  'P 1'
_symmetry_Int_Tables_number     1

_symmetry_equiv_pos_as_xyz 'x,y,z'

loop_
_atom_site_label
_atom_site_type_symbol
_atom_site_fract_x
_atom_site_fract_y
_atom_site_fract_z
_atom_site_charge
Zn       Zn     0.278040000000     0.518310000000     0.296120000000     0.356944   
Zn       Zn     0.721960000000     0.018310000000     0.203880000000     0.356944   
Zn       Zn     0.721960000000     0.481690000000     0.703880000000     0.356944   
Zn       Zn     0.278040000000     0.981690000000     0.796120000000     0.356944   
H        H      0.640700000000     0.550400000000     0.218800000000     0.0498993  
H        H      0.734800000000     0.545800000000     0.097000000000     0.0498993  
H        H      0.183800000000     0.461100000000     0.012600000000     0.0498993  
H        H      0.100300000000     0.469900000000     0.136000000000     0.0498993  
H        H      0.500600000000     0.401800000000     0.407700000000     0.0498993  
H        H      0.807200000000     0.390400000000     0.487800000000     0.0498993  
H        H      0.909400000000     0.619500000000     0.449400000000     0.0498993  
H        H      0.602000000000     0.624400000000     0.369100000000     0.0498993  
H        H      0.597700000000     0.364300000000     0.166000000000     0.0498993  
H        H      0.666900000000     0.247800000000     0.371900000000     0.0498993  
H        H      0.350000000000     0.190600000000     0.337100000000     0.0498993  
H        H      0.284400000000     0.305400000000     0.130300000000     0.0498993  
H        H      0.359300000000     0.050400000000     0.281200000000     0.0498993  
H        H      0.265200000000     0.045800000000     0.403000000000     0.0498993  
H        H      0.816200000000     0.961100000000     0.487400000000     0.0498993  
H        H      0.899700000000     0.969900000000     0.364000000000     0.0498993  
H        H      0.499400000000     0.901800000000     0.092300000000     0.0498993  
H        H      0.192800000000     0.890400000000     0.012200000000     0.0498993  
H        H      0.090600000000     0.119500000000     0.050600000000     0.0498993  
H        H      0.398000000000     0.124400000000     0.130900000000     0.0498993  
H        H      0.402300000000     0.864300000000     0.334000000000     0.0498993  
H        H      0.333100000000     0.747800000000     0.128100000000     0.0498993  
H        H      0.650000000000     0.690600000000     0.162900000000     0.0498993  
H        H      0.715600000000     0.805400000000     0.369700000000     0.0498993  
H        H      0.359300000000     0.449600000000     0.781200000000     0.0498993  
H        H      0.265200000000     0.454200000000     0.903000000000     0.0498993  
H        H      0.816200000000     0.538900000000     0.987400000000     0.0498993  
H        H      0.899700000000     0.530100000000     0.864000000000     0.0498993  
H        H      0.499400000000     0.598200000000     0.592300000000     0.0498993  
H        H      0.192800000000     0.609600000000     0.512200000000     0.0498993  
H        H      0.090600000000     0.380500000000     0.550600000000     0.0498993  
H        H      0.398000000000     0.375600000000     0.630900000000     0.0498993  
H        H      0.402300000000     0.635700000000     0.834000000000     0.0498993  
H        H      0.333100000000     0.752200000000     0.628100000000     0.0498993  
H        H      0.650000000000     0.809400000000     0.662900000000     0.0498993  
H        H      0.715600000000     0.694600000000     0.869700000000     0.0498993  
H        H      0.640700000000     0.949600000000     0.718800000000     0.0498993  
H        H      0.734800000000     0.954200000000     0.597000000000     0.0498993  
H        H      0.183800000000     0.038900000000     0.512600000000     0.0498993  
H        H      0.100300000000     0.030100000000     0.636000000000     0.0498993  
H        H      0.500600000000     0.098200000000     0.907700000000     0.0498993  
H        H      0.807200000000     0.109600000000     0.987800000000     0.0498993  
H        H      0.909400000000     0.880500000000     0.949400000000     0.0498993  
H        H      0.602000000000     0.875600000000     0.869100000000     0.0498993  
H        H      0.597700000000     0.135700000000     0.666000000000     0.0498993  
H        H      0.666900000000     0.252200000000     0.871900000000     0.0498993  
H        H      0.350000000000     0.309400000000     0.837100000000     0.0498993  
H        H      0.284400000000     0.194600000000     0.630300000000     0.0498993  
C        C      0.545800000000     0.532640000000     0.176150000000     0.00191937 
C        C      0.603300000000     0.529450000000     0.103580000000     0.00191937 
C        C      0.471200000000     0.502520000000     0.039620000000     0.00191937 
C        C      0.280300000000     0.480100000000     0.054080000000     0.00191937 
C        C      0.231300000000     0.485410000000     0.127840000000     0.00191937 
C        C      0.586600000000     0.446150000000     0.415280000000     0.00191937 
C        C      0.769500000000     0.439080000000     0.463360000000     0.00191937 
C        C      0.898800000000     0.503110000000     0.476050000000     0.00191937 
C        C      0.829800000000     0.573470000000     0.440670000000     0.00191937 
C        C      0.645700000000     0.576100000000     0.392940000000     0.00191937 
C        C      0.858700000000     0.350070000000     0.297170000000     0.00191937 
C        C      0.663100000000     0.311870000000     0.272740000000     0.00191937 
C        C      0.547900000000     0.328790000000     0.200650000000     0.00191937 
C        C      0.588700000000     0.259890000000     0.323010000000     0.00191937 
C        C      0.091500000000     0.203070000000     0.206390000000     0.00191937 
C        C      0.286500000000     0.242440000000     0.229850000000     0.00191937 
C        C      0.400800000000     0.225550000000     0.302190000000     0.00191937 
C        C      0.361500000000     0.293950000000     0.179590000000     0.00191937 
C        C      0.454200000000     0.032640000000     0.323850000000     0.00191937 
C        C      0.396700000000     0.029450000000     0.396420000000     0.00191937 
C        C      0.528800000000     0.002520000000     0.460380000000     0.00191937 
C        C      0.719700000000     0.980100000000     0.445920000000     0.00191937 
C        C      0.768700000000     0.985410000000     0.372160000000     0.00191937 
C        C      0.413400000000     0.946150000000     0.084720000000     0.00191937 
C        C      0.230500000000     0.939080000000     0.036640000000     0.00191937 
C        C      0.101200000000     0.003110000000     0.023950000000     0.00191937 
C        C      0.170200000000     0.073470000000     0.059330000000     0.00191937 
C        C      0.354300000000     0.076100000000     0.107060000000     0.00191937 
C        C      0.141300000000     0.850070000000     0.202830000000     0.00191937 
C        C      0.336900000000     0.811870000000     0.227260000000     0.00191937 
C        C      0.452100000000     0.828790000000     0.299350000000     0.00191937 
C        C      0.411300000000     0.759890000000     0.176990000000     0.00191937 
C        C      0.908500000000     0.703070000000     0.293610000000     0.00191937 
C        C      0.713500000000     0.742440000000     0.270150000000     0.00191937 
C        C      0.599200000000     0.725550000000     0.197810000000     0.00191937 
C        C      0.638500000000     0.793950000000     0.320410000000     0.00191937 
C        C      0.454200000000     0.467360000000     0.823850000000     0.00191937 
C        C      0.396700000000     0.470550000000     0.896420000000     0.00191937 
C        C      0.528800000000     0.497480000000     0.960380000000     0.00191937 
C        C      0.719700000000     0.519900000000     0.945920000000     0.00191937 
C        C      0.768700000000     0.514590000000     0.872160000000     0.00191937 
C        C      0.413400000000     0.553850000000     0.584720000000     0.00191937 
C        C      0.230500000000     0.560920000000     0.536640000000     0.00191937 
C        C      0.101200000000     0.496890000000     0.523950000000     0.00191937 
C        C      0.170200000000     0.426530000000     0.559330000000     0.00191937 
C        C      0.354300000000     0.423900000000     0.607060000000     0.00191937 
C        C      0.141300000000     0.649930000000     0.702830000000     0.00191937 
C        C      0.336900000000     0.688130000000     0.727260000000     0.00191937 
C        C      0.452100000000     0.671210000000     0.799350000000     0.00191937 
C        C      0.411300000000     0.740110000000     0.676990000000     0.00191937 
C        C      0.908500000000     0.796930000000     0.793610000000     0.00191937 
C        C      0.713500000000     0.757560000000     0.770150000000     0.00191937 
C        C      0.599200000000     0.774450000000     0.697810000000     0.00191937 
C        C      0.638500000000     0.706050000000     0.820410000000     0.00191937 
C        C      0.545800000000     0.967360000000     0.676150000000     0.00191937 
C        C      0.603300000000     0.970550000000     0.603580000000     0.00191937 
C        C      0.471200000000     0.997480000000     0.539620000000     0.00191937 
C        C      0.280300000000     0.019900000000     0.554080000000     0.00191937 
C        C      0.231300000000     0.014590000000     0.627840000000     0.00191937 
C        C      0.586600000000     0.053850000000     0.915280000000     0.00191937 
C        C      0.769500000000     0.060920000000     0.963360000000     0.00191937 
C        C      0.898800000000     0.996890000000     0.976050000000     0.00191937 
C        C      0.829800000000     0.926530000000     0.940670000000     0.00191937 
C        C      0.645700000000     0.923900000000     0.892940000000     0.00191937 
C        C      0.858700000000     0.149930000000     0.797170000000     0.00191937 
C        C      0.663100000000     0.188130000000     0.772740000000     0.00191937 
C        C      0.547900000000     0.171210000000     0.700650000000     0.00191937 
C        C      0.588700000000     0.240110000000     0.823010000000     0.00191937 
C        C      0.091500000000     0.296930000000     0.706390000000     0.00191937 
C        C      0.286500000000     0.257560000000     0.729850000000     0.00191937 
C        C      0.400800000000     0.274450000000     0.802190000000     0.00191937 
C        C      0.361500000000     0.206050000000     0.679590000000     0.00191937 
N        N      0.362000000000     0.511880000000     0.189440000000    -0.0990285  
N        N      0.525500000000     0.513200000000     0.378790000000    -0.0990285  
N        N      0.099500000000     0.429170000000     0.308780000000    -0.0990285  
N        N      0.144500000000     0.376080000000     0.363810000000    -0.0990285  
N        N      0.994000000000     0.324740000000     0.357660000000    -0.0990285  
N        N      0.920500000000     0.414760000000     0.265200000000    -0.0990285  
N        N      0.858500000000     0.120030000000     0.194130000000    -0.0990285  
N        N      0.803700000000     0.175320000000     0.141890000000    -0.0990285  
N        N      0.949900000000     0.228910000000     0.148510000000    -0.0990285  
N        N      0.039200000000     0.135570000000     0.235890000000    -0.0990285  
N        N      0.638000000000     0.011880000000     0.310560000000    -0.0990285  
N        N      0.474500000000     0.013200000000     0.121210000000    -0.0990285  
N        N      0.900500000000     0.929170000000     0.191220000000    -0.0990285  
N        N      0.855500000000     0.876080000000     0.136190000000    -0.0990285  
N        N      0.006000000000     0.824740000000     0.142340000000    -0.0990285  
N        N      0.079500000000     0.914760000000     0.234800000000    -0.0990285  
N        N      0.141500000000     0.620030000000     0.305870000000    -0.0990285  
N        N      0.196300000000     0.675320000000     0.358110000000    -0.0990285  
N        N      0.050100000000     0.728910000000     0.351490000000    -0.0990285  
N        N      0.960800000000     0.635570000000     0.264110000000    -0.0990285  
N        N      0.638000000000     0.488120000000     0.810560000000    -0.0990285  
N        N      0.474500000000     0.486800000000     0.621210000000    -0.0990285  
N        N      0.900500000000     0.570830000000     0.691220000000    -0.0990285  
N        N      0.855500000000     0.623920000000     0.636190000000    -0.0990285  
N        N      0.006000000000     0.675260000000     0.642340000000    -0.0990285  
N        N      0.079500000000     0.585240000000     0.734800000000    -0.0990285  
N        N      0.141500000000     0.879970000000     0.805870000000    -0.0990285  
N        N      0.196300000000     0.824680000000     0.858110000000    -0.0990285  
N        N      0.050100000000     0.771090000000     0.851490000000    -0.0990285  
N        N      0.960800000000     0.864430000000     0.764110000000    -0.0990285  
N        N      0.362000000000     0.988120000000     0.689440000000    -0.0990285  
N        N      0.525500000000     0.986800000000     0.878790000000    -0.0990285  
N        N      0.099500000000     0.070830000000     0.808780000000    -0.0990285  
N        N      0.144500000000     0.123920000000     0.863810000000    -0.0990285  
N        N      0.994000000000     0.175260000000     0.857660000000    -0.0990285  
N        N      0.920500000000     0.085240000000     0.765200000000    -0.0990285  
N        N      0.858500000000     0.379970000000     0.694130000000    -0.0990285  
N        N      0.803700000000     0.324680000000     0.641890000000    -0.0990285  
N        N      0.949900000000     0.271090000000     0.648510000000    -0.0990285  
N        N      0.039200000000     0.364430000000     0.735890000000    -0.0990285  


