data_BUVXOG_original

_audit_creation_method RASPA-1.0
_audit_creation_date 2022-1-31
_audit_author_name 'Felipe Lopes de Oliveira <felipe.lopes.oliveira@ibm.com>'

_cell_length_a    8.9371
_cell_length_b    16.2155
_cell_length_c    16.2155
_cell_angle_alpha 116.703
_cell_angle_beta  100.586
_cell_angle_gamma 100.586
_cell_volume      1966.43

_symmetry_cell_setting          triclinic
_symmetry_space_group_name_Hall 'P 1'
_symmetry_space_group_name_H-M  'P 1'
_symmetry_Int_Tables_number     1

_symmetry_equiv_pos_as_xyz 'x,y,z'

loop_
_atom_site_label
_atom_site_type_symbol
_atom_site_fract_x
_atom_site_fract_y
_atom_site_fract_z
_atom_site_charge
Fe       Fe     0.500000000000     0.500000000000     0.000000000000     0.753      
Fe       Fe     0.000000000000     0.500000000000     0.500000000000     0.753      
Fe       Fe     0.500000000000     0.000000000000     0.500000000000     0.753      
H        H      0.098700000000     0.663500000000     0.980500000000     0.0428906  
H        H      0.257800000000     0.824600000000     0.087900000000     0.0428906  
H        H      0.526000000000     0.854200000000     0.164500000000     0.0428906  
H        H      0.629700000000     0.726000000000     0.131300000000     0.0428906  
H        H      0.763700000000     0.351700000000     0.727400000000     0.0428906  
H        H      0.570800000000     0.217700000000     0.603100000000     0.0428906  
H        H      0.770500000000     0.047300000000     0.664600000000     0.0428906  
H        H      0.975000000000     0.176900000000     0.786400000000     0.0428906  
H        H      0.435200000000     0.317000000000     0.336500000000     0.0428906  
H        H      0.433200000000     0.263300000000     0.175400000000     0.0428906  
H        H      0.671800000000     0.310300000000     0.145800000000     0.0428906  
H        H      0.903700000000     0.405300000000     0.274000000000     0.0428906  
H        H      0.412000000000     0.375700000000     0.648300000000     0.0428906  
H        H      0.353100000000     0.385400000000     0.782300000000     0.0428906  
H        H      0.723200000000     0.617300000000     0.952700000000     0.0428906  
H        H      0.798100000000     0.609500000000     0.823100000000     0.0428906  
H        H      0.118200000000     0.019500000000     0.683000000000     0.0428906  
H        H      0.169900000000     0.912100000000     0.736700000000     0.0428906  
H        H      0.361500000000     0.835500000000     0.689700000000     0.0428906  
H        H      0.498400000000     0.868700000000     0.594700000000     0.0428906  
H        H      0.036300000000     0.272600000000     0.624300000000     0.0428906  
H        H      0.967700000000     0.396900000000     0.614600000000     0.0428906  
H        H      0.105900000000     0.335400000000     0.382700000000     0.0428906  
H        H      0.188600000000     0.213600000000     0.390500000000     0.0428906  
H        H      0.901300000000     0.336500000000     0.019500000000     0.0428906  
H        H      0.742200000000     0.175400000000     0.912100000000     0.0428906  
H        H      0.474000000000     0.145800000000     0.835500000000     0.0428906  
H        H      0.370300000000     0.274000000000     0.868700000000     0.0428906  
H        H      0.236300000000     0.648300000000     0.272600000000     0.0428906  
H        H      0.429200000000     0.782300000000     0.396900000000     0.0428906  
H        H      0.229500000000     0.952700000000     0.335400000000     0.0428906  
H        H      0.025000000000     0.823100000000     0.213600000000     0.0428906  
H        H      0.564800000000     0.683000000000     0.663500000000     0.0428906  
H        H      0.566800000000     0.736700000000     0.824600000000     0.0428906  
H        H      0.328200000000     0.689700000000     0.854200000000     0.0428906  
H        H      0.096300000000     0.594700000000     0.726000000000     0.0428906  
H        H      0.588000000000     0.624300000000     0.351700000000     0.0428906  
H        H      0.646900000000     0.614600000000     0.217700000000     0.0428906  
H        H      0.276800000000     0.382700000000     0.047300000000     0.0428906  
H        H      0.201900000000     0.390500000000     0.176900000000     0.0428906  
H        H      0.881800000000     0.980500000000     0.317000000000     0.0428906  
H        H      0.830100000000     0.087900000000     0.263300000000     0.0428906  
H        H      0.638500000000     0.164500000000     0.310300000000     0.0428906  
H        H      0.501600000000     0.131300000000     0.405300000000     0.0428906  
H        H      0.963700000000     0.727400000000     0.375700000000     0.0428906  
H        H      0.032300000000     0.603100000000     0.385400000000     0.0428906  
H        H      0.894100000000     0.664600000000     0.617300000000     0.0428906  
H        H      0.811400000000     0.786400000000     0.609500000000     0.0428906  
C        C      0.189900000000     0.502200000000     0.932700000000     0.00873286 
C        C      0.033100000000     0.363500000000     0.841600000000     0.00873286 
C        C      0.274300000000     0.603800000000     0.994600000000     0.00873286 
C        C      0.208400000000     0.677600000000     0.012000000000     0.00873286 
C        C      0.301600000000     0.772600000000     0.075400000000     0.00873286 
C        C      0.459300000000     0.789800000000     0.120000000000     0.00873286 
C        C      0.520600000000     0.713000000000     0.099900000000     0.00873286 
C        C      0.896800000000     0.280800000000     0.770400000000     0.00873286 
C        C      0.769900000000     0.289400000000     0.714100000000     0.00873286 
C        C      0.655000000000     0.209100000000     0.640500000000     0.00873286 
C        C      0.771600000000     0.110100000000     0.675600000000     0.00873286 
C        C      0.892800000000     0.187100000000     0.749200000000     0.00873286 
C        C      0.687700000000     0.430500000000     0.497800000000     0.00873286 
C        C      0.669600000000     0.478100000000     0.636500000000     0.00873286 
C        C      0.670500000000     0.390800000000     0.396200000000     0.00873286 
C        C      0.530800000000     0.334400000000     0.322400000000     0.00873286 
C        C      0.529000000000     0.302800000000     0.227400000000     0.00873286 
C        C      0.669500000000     0.330200000000     0.210200000000     0.00873286 
C        C      0.807600000000     0.386900000000     0.287000000000     0.00873286 
C        C      0.616000000000     0.489600000000     0.719200000000     0.00873286 
C        C      0.480500000000     0.424700000000     0.710600000000     0.00873286 
C        C      0.445900000000     0.431400000000     0.790900000000     0.00873286 
C        C      0.661500000000     0.565500000000     0.889900000000     0.00873286 
C        C      0.705700000000     0.562100000000     0.812900000000     0.00873286 
C        C      0.257200000000     0.067300000000     0.569500000000     0.00873286 
C        C      0.191500000000     0.158400000000     0.521900000000     0.00873286 
C        C      0.279700000000     0.005400000000     0.609200000000     0.00873286 
C        C      0.196400000000     0.988000000000     0.665600000000     0.00873286 
C        C      0.226200000000     0.924600000000     0.697200000000     0.00873286 
C        C      0.339300000000     0.880000000000     0.669800000000     0.00873286 
C        C      0.420700000000     0.900100000000     0.613100000000     0.00873286 
C        C      0.126400000000     0.229600000000     0.510400000000     0.00873286 
C        C      0.055800000000     0.285900000000     0.575300000000     0.00873286 
C        C      0.014500000000     0.359500000000     0.568600000000     0.00873286 
C        C      0.096000000000     0.324400000000     0.434500000000     0.00873286 
C        C      0.143600000000     0.250800000000     0.437900000000     0.00873286 
C        C      0.810100000000     0.497800000000     0.067300000000     0.00873286 
C        C      0.966900000000     0.636500000000     0.158400000000     0.00873286 
C        C      0.725700000000     0.396200000000     0.005400000000     0.00873286 
C        C      0.791600000000     0.322400000000     0.988000000000     0.00873286 
C        C      0.698400000000     0.227400000000     0.924600000000     0.00873286 
C        C      0.540700000000     0.210200000000     0.880000000000     0.00873286 
C        C      0.479400000000     0.287000000000     0.900100000000     0.00873286 
C        C      0.103200000000     0.719200000000     0.229600000000     0.00873286 
C        C      0.230100000000     0.710600000000     0.285900000000     0.00873286 
C        C      0.345000000000     0.790900000000     0.359500000000     0.00873286 
C        C      0.228400000000     0.889900000000     0.324400000000     0.00873286 
C        C      0.107200000000     0.812900000000     0.250800000000     0.00873286 
C        C      0.312300000000     0.569500000000     0.502200000000     0.00873286 
C        C      0.330400000000     0.521900000000     0.363500000000     0.00873286 
C        C      0.329500000000     0.609200000000     0.603800000000     0.00873286 
C        C      0.469200000000     0.665600000000     0.677600000000     0.00873286 
C        C      0.471000000000     0.697200000000     0.772600000000     0.00873286 
C        C      0.330500000000     0.669800000000     0.789800000000     0.00873286 
C        C      0.192400000000     0.613100000000     0.713000000000     0.00873286 
C        C      0.384000000000     0.510400000000     0.280800000000     0.00873286 
C        C      0.519500000000     0.575300000000     0.289400000000     0.00873286 
C        C      0.554100000000     0.568600000000     0.209100000000     0.00873286 
C        C      0.338500000000     0.434500000000     0.110100000000     0.00873286 
C        C      0.294300000000     0.437900000000     0.187100000000     0.00873286 
C        C      0.742800000000     0.932700000000     0.430500000000     0.00873286 
C        C      0.808500000000     0.841600000000     0.478100000000     0.00873286 
C        C      0.720300000000     0.994600000000     0.390800000000     0.00873286 
C        C      0.803600000000     0.012000000000     0.334400000000     0.00873286 
C        C      0.773800000000     0.075400000000     0.302800000000     0.00873286 
C        C      0.660700000000     0.120000000000     0.330200000000     0.00873286 
C        C      0.579300000000     0.099900000000     0.386900000000     0.00873286 
C        C      0.873600000000     0.770400000000     0.489600000000     0.00873286 
C        C      0.944200000000     0.714100000000     0.424700000000     0.00873286 
C        C      0.985500000000     0.640500000000     0.431400000000     0.00873286 
C        C      0.904000000000     0.675600000000     0.565500000000     0.00873286 
C        C      0.856400000000     0.749200000000     0.562100000000     0.00873286 
N        N      0.273100000000     0.441500000000     0.932800000000    -0.164884   
N        N      0.169700000000     0.350100000000     0.873600000000    -0.164884   
N        N      0.036900000000     0.456400000000     0.876500000000    -0.164884   
N        N      0.431600000000     0.619700000000     0.037200000000    -0.164884   
N        N      0.652600000000     0.117600000000     0.617100000000    -0.164884   
N        N      0.831600000000     0.491300000000     0.558500000000    -0.164884   
N        N      0.819600000000     0.523500000000     0.649900000000    -0.164884   
N        N      0.580500000000     0.420100000000     0.543600000000    -0.164884   
N        N      0.811900000000     0.417500000000     0.380300000000    -0.164884   
N        N      0.535000000000     0.499500000000     0.882400000000    -0.164884   
N        N      0.340300000000     0.067200000000     0.508700000000    -0.164884   
N        N      0.296100000000     0.126400000000     0.476500000000    -0.164884   
N        N      0.160400000000     0.123500000000     0.579900000000    -0.164884   
N        N      0.394400000000     0.962800000000     0.582500000000    -0.164884   
N        N      0.035500000000     0.382900000000     0.500500000000    -0.164884   
N        N      0.726900000000     0.558500000000     0.067200000000    -0.164884   
N        N      0.830300000000     0.649900000000     0.126400000000    -0.164884   
N        N      0.963100000000     0.543600000000     0.123500000000    -0.164884   
N        N      0.568400000000     0.380300000000     0.962800000000    -0.164884   
N        N      0.347400000000     0.882400000000     0.382900000000    -0.164884   
N        N      0.168400000000     0.508700000000     0.441500000000    -0.164884   
N        N      0.180400000000     0.476500000000     0.350100000000    -0.164884   
N        N      0.419500000000     0.579900000000     0.456400000000    -0.164884   
N        N      0.188100000000     0.582500000000     0.619700000000    -0.164884   
N        N      0.465000000000     0.500500000000     0.117600000000    -0.164884   
N        N      0.659700000000     0.932800000000     0.491300000000    -0.164884   
N        N      0.703900000000     0.873600000000     0.523500000000    -0.164884   
N        N      0.839600000000     0.876500000000     0.420100000000    -0.164884   
N        N      0.605600000000     0.037200000000     0.417500000000    -0.164884   
N        N      0.964500000000     0.617100000000     0.499500000000    -0.164884   


