data_CAHSOU_original

_audit_creation_method RASPA-1.0
_audit_creation_date 2022-1-31
_audit_author_name 'Felipe Lopes de Oliveira <felipe.lopes.oliveira@ibm.com>'

_cell_length_a    9.8636
_cell_length_b    9.8636
_cell_length_c    30.3529
_cell_angle_alpha 90
_cell_angle_beta  90
_cell_angle_gamma 90
_cell_volume      2953.05

_symmetry_cell_setting          triclinic
_symmetry_space_group_name_Hall 'P 1'
_symmetry_space_group_name_H-M  'P 1'
_symmetry_Int_Tables_number     1

_symmetry_equiv_pos_as_xyz 'x,y,z'

loop_
_atom_site_label
_atom_site_type_symbol
_atom_site_fract_x
_atom_site_fract_y
_atom_site_fract_z
_atom_site_charge
Fe       Fe     0.770300000000     0.579400000000     0.909200000000     1.16237    
Fe       Fe     0.592800000000     0.049900000000     0.011300000000     1.16237    
Fe       Fe     0.229700000000     0.420600000000     0.409200000000     1.16237    
Fe       Fe     0.407200000000     0.950100000000     0.511300000000     1.16237    
Fe       Fe     0.920600000000     0.270300000000     0.159200000000     1.16237    
Fe       Fe     0.450100000000     0.092800000000     0.261300000000     1.16237    
Fe       Fe     0.079400000000     0.729700000000     0.659200000000     1.16237    
Fe       Fe     0.549900000000     0.907200000000     0.761300000000     1.16237    
Fe       Fe     0.729700000000     0.079400000000     0.340800000000     1.16237    
Fe       Fe     0.907200000000     0.549900000000     0.238700000000     1.16237    
Fe       Fe     0.270300000000     0.920600000000     0.840800000000     1.16237    
Fe       Fe     0.092800000000     0.450100000000     0.738700000000     1.16237    
Fe       Fe     0.579400000000     0.770300000000     0.090800000000     1.16237    
Fe       Fe     0.049900000000     0.592800000000     0.988700000000     1.16237    
Fe       Fe     0.420600000000     0.229700000000     0.590800000000     1.16237    
Fe       Fe     0.950100000000     0.407200000000     0.488700000000     1.16237    
Fe       Fe     0.311200000000     0.311200000000     0.000000000000     1.16237    
Fe       Fe     0.688800000000     0.688800000000     0.500000000000     1.16237    
Fe       Fe     0.188800000000     0.811200000000     0.250000000000     1.16237    
Fe       Fe     0.811200000000     0.188800000000     0.750000000000     1.16237    
P        P      0.555600000000     0.778100000000     0.859800000000     0.559289   
P        P      0.029800000000     0.324200000000     0.055700000000     0.559289   
P        P      0.621800000000     0.344800000000     0.969400000000     0.559289   
P        P      0.444400000000     0.221900000000     0.359800000000     0.559289   
P        P      0.970200000000     0.675800000000     0.555700000000     0.559289   
P        P      0.378200000000     0.655200000000     0.469400000000     0.559289   
P        P      0.721900000000     0.055600000000     0.109800000000     0.559289   
P        P      0.175800000000     0.529800000000     0.305700000000     0.559289   
P        P      0.155200000000     0.121800000000     0.219400000000     0.559289   
P        P      0.278100000000     0.944400000000     0.609800000000     0.559289   
P        P      0.824200000000     0.470200000000     0.805700000000     0.559289   
P        P      0.844800000000     0.878200000000     0.719400000000     0.559289   
P        P      0.944400000000     0.278100000000     0.390200000000     0.559289   
P        P      0.470200000000     0.824200000000     0.194300000000     0.559289   
P        P      0.878200000000     0.844800000000     0.280600000000     0.559289   
P        P      0.055600000000     0.721900000000     0.890200000000     0.559289   
P        P      0.529800000000     0.175800000000     0.694300000000     0.559289   
P        P      0.121800000000     0.155200000000     0.780600000000     0.559289   
P        P      0.778100000000     0.555600000000     0.140200000000     0.559289   
P        P      0.324200000000     0.029800000000     0.944300000000     0.559289   
P        P      0.344800000000     0.621800000000     0.030600000000     0.559289   
P        P      0.221900000000     0.444400000000     0.640200000000     0.559289   
P        P      0.675800000000     0.970200000000     0.444300000000     0.559289   
P        P      0.655200000000     0.378200000000     0.530600000000     0.559289   
P        P      0.763000000000     0.763000000000     0.000000000000     0.559289   
P        P      0.237000000000     0.237000000000     0.500000000000     0.559289   
P        P      0.737000000000     0.263000000000     0.250000000000     0.559289   
P        P      0.263000000000     0.737000000000     0.750000000000     0.559289   
O        O      0.705800000000     0.685600000000     0.960200000000    -0.272985   
O        O      0.689200000000     0.406500000000     0.929300000000    -0.272985   
O        O      0.607700000000     0.642600000000     0.877200000000    -0.272985   
O        O      0.022100000000     0.328600000000     0.105500000000    -0.272985   
O        O      0.400300000000     0.771600000000     0.858000000000    -0.272985   
O        O      0.669000000000     0.197500000000     0.976000000000    -0.272985   
O        O      0.999200000000     0.466600000000     0.037300000000    -0.272985   
O        O      0.917500000000     0.736400000000     0.004700000000    -0.272985   
O        O      0.622200000000     0.807400000000     0.814600000000    -0.272985   
O        O      0.164800000000     0.263700000000     0.040700000000    -0.272985   
O        O      0.468200000000     0.355400000000     0.963100000000    -0.272985   
O        O      0.604600000000     0.898300000000     0.889800000000    -0.272985   
O        O      0.924000000000     0.221100000000     0.035900000000    -0.272985   
O        O      0.665500000000     0.420200000000     0.013200000000    -0.272985   
O        O      0.294200000000     0.314400000000     0.460200000000    -0.272985   
O        O      0.310800000000     0.593500000000     0.429300000000    -0.272985   
O        O      0.392300000000     0.357400000000     0.377200000000    -0.272985   
O        O      0.977900000000     0.671400000000     0.605500000000    -0.272985   
O        O      0.599700000000     0.228400000000     0.358000000000    -0.272985   
O        O      0.331000000000     0.802500000000     0.476000000000    -0.272985   
O        O      0.000800000000     0.533400000000     0.537300000000    -0.272985   
O        O      0.082500000000     0.263600000000     0.504700000000    -0.272985   
O        O      0.377800000000     0.192600000000     0.314600000000    -0.272985   
O        O      0.835200000000     0.736300000000     0.540700000000    -0.272985   
O        O      0.531800000000     0.644600000000     0.463100000000    -0.272985   
O        O      0.395400000000     0.101700000000     0.389800000000    -0.272985   
O        O      0.076000000000     0.778900000000     0.535900000000    -0.272985   
O        O      0.334500000000     0.579800000000     0.513200000000    -0.272985   
O        O      0.814400000000     0.205800000000     0.210200000000    -0.272985   
O        O      0.093500000000     0.189200000000     0.179300000000    -0.272985   
O        O      0.857400000000     0.107700000000     0.127200000000    -0.272985   
O        O      0.171400000000     0.522100000000     0.355500000000    -0.272985   
O        O      0.728400000000     0.900300000000     0.108000000000    -0.272985   
O        O      0.302500000000     0.169000000000     0.226000000000    -0.272985   
O        O      0.033400000000     0.499200000000     0.287300000000    -0.272985   
O        O      0.763600000000     0.417500000000     0.254700000000    -0.272985   
O        O      0.692600000000     0.122200000000     0.064600000000    -0.272985   
O        O      0.236300000000     0.664800000000     0.290700000000    -0.272985   
O        O      0.144600000000     0.968200000000     0.213100000000    -0.272985   
O        O      0.601700000000     0.104600000000     0.139800000000    -0.272985   
O        O      0.278900000000     0.424000000000     0.285900000000    -0.272985   
O        O      0.079800000000     0.165500000000     0.263200000000    -0.272985   
O        O      0.185600000000     0.794200000000     0.710200000000    -0.272985   
O        O      0.906500000000     0.810800000000     0.679300000000    -0.272985   
O        O      0.142600000000     0.892300000000     0.627200000000    -0.272985   
O        O      0.828600000000     0.477900000000     0.855500000000    -0.272985   
O        O      0.271600000000     0.099700000000     0.608000000000    -0.272985   
O        O      0.697500000000     0.831000000000     0.726000000000    -0.272985   
O        O      0.966600000000     0.500800000000     0.787300000000    -0.272985   
O        O      0.236400000000     0.582500000000     0.754700000000    -0.272985   
O        O      0.307400000000     0.877800000000     0.564600000000    -0.272985   
O        O      0.763700000000     0.335200000000     0.790700000000    -0.272985   
O        O      0.855400000000     0.031800000000     0.713100000000    -0.272985   
O        O      0.398300000000     0.895400000000     0.639800000000    -0.272985   
O        O      0.721100000000     0.576000000000     0.785900000000    -0.272985   
O        O      0.920200000000     0.834500000000     0.763200000000    -0.272985   
O        O      0.794200000000     0.185600000000     0.289800000000    -0.272985   
O        O      0.810800000000     0.906500000000     0.320700000000    -0.272985   
O        O      0.892300000000     0.142600000000     0.372800000000    -0.272985   
O        O      0.477900000000     0.828600000000     0.144500000000    -0.272985   
O        O      0.099700000000     0.271600000000     0.392000000000    -0.272985   
O        O      0.831000000000     0.697500000000     0.274000000000    -0.272985   
O        O      0.500800000000     0.966600000000     0.212700000000    -0.272985   
O        O      0.582500000000     0.236400000000     0.245300000000    -0.272985   
O        O      0.877800000000     0.307400000000     0.435400000000    -0.272985   
O        O      0.335200000000     0.763700000000     0.209300000000    -0.272985   
O        O      0.031800000000     0.855400000000     0.286900000000    -0.272985   
O        O      0.895400000000     0.398300000000     0.360200000000    -0.272985   
O        O      0.576000000000     0.721100000000     0.214100000000    -0.272985   
O        O      0.834500000000     0.920200000000     0.236800000000    -0.272985   
O        O      0.205800000000     0.814400000000     0.789800000000    -0.272985   
O        O      0.189200000000     0.093500000000     0.820700000000    -0.272985   
O        O      0.107700000000     0.857400000000     0.872800000000    -0.272985   
O        O      0.522100000000     0.171400000000     0.644500000000    -0.272985   
O        O      0.900300000000     0.728400000000     0.892000000000    -0.272985   
O        O      0.169000000000     0.302500000000     0.774000000000    -0.272985   
O        O      0.499200000000     0.033400000000     0.712700000000    -0.272985   
O        O      0.417500000000     0.763600000000     0.745300000000    -0.272985   
O        O      0.122200000000     0.692600000000     0.935400000000    -0.272985   
O        O      0.664800000000     0.236300000000     0.709300000000    -0.272985   
O        O      0.968200000000     0.144600000000     0.786900000000    -0.272985   
O        O      0.104600000000     0.601700000000     0.860200000000    -0.272985   
O        O      0.424000000000     0.278900000000     0.714100000000    -0.272985   
O        O      0.165500000000     0.079800000000     0.736800000000    -0.272985   
O        O      0.685600000000     0.705800000000     0.039800000000    -0.272985   
O        O      0.406500000000     0.689200000000     0.070700000000    -0.272985   
O        O      0.642600000000     0.607700000000     0.122800000000    -0.272985   
O        O      0.328600000000     0.022100000000     0.894500000000    -0.272985   
O        O      0.771600000000     0.400300000000     0.142000000000    -0.272985   
O        O      0.197500000000     0.669000000000     0.024000000000    -0.272985   
O        O      0.466600000000     0.999200000000     0.962700000000    -0.272985   
O        O      0.736400000000     0.917500000000     0.995300000000    -0.272985   
O        O      0.807400000000     0.622200000000     0.185400000000    -0.272985   
O        O      0.263700000000     0.164800000000     0.959300000000    -0.272985   
O        O      0.355400000000     0.468200000000     0.036900000000    -0.272985   
O        O      0.898300000000     0.604600000000     0.110200000000    -0.272985   
O        O      0.221100000000     0.924000000000     0.964100000000    -0.272985   
O        O      0.420200000000     0.665500000000     0.986800000000    -0.272985   
O        O      0.314400000000     0.294200000000     0.539800000000    -0.272985   
O        O      0.593500000000     0.310800000000     0.570700000000    -0.272985   
O        O      0.357400000000     0.392300000000     0.622800000000    -0.272985   
O        O      0.671400000000     0.977900000000     0.394500000000    -0.272985   
O        O      0.228400000000     0.599700000000     0.642000000000    -0.272985   
O        O      0.802500000000     0.331000000000     0.524000000000    -0.272985   
O        O      0.533400000000     0.000800000000     0.462700000000    -0.272985   
O        O      0.263600000000     0.082500000000     0.495300000000    -0.272985   
O        O      0.192600000000     0.377800000000     0.685400000000    -0.272985   
O        O      0.736300000000     0.835200000000     0.459300000000    -0.272985   
O        O      0.644600000000     0.531800000000     0.536900000000    -0.272985   
O        O      0.101700000000     0.395400000000     0.610200000000    -0.272985   
O        O      0.778900000000     0.076000000000     0.464100000000    -0.272985   
O        O      0.579800000000     0.334500000000     0.486800000000    -0.272985   
F        F      0.926900000000     0.507100000000     0.946500000000    -0.520822   
F        F      0.183000000000     0.435000000000     0.967700000000    -0.520822   
F        F      0.073100000000     0.492900000000     0.446500000000    -0.520822   
F        F      0.817000000000     0.565000000000     0.467700000000    -0.520822   
F        F      0.992900000000     0.426900000000     0.196500000000    -0.520822   
F        F      0.065000000000     0.683000000000     0.217700000000    -0.520822   
F        F      0.007100000000     0.573100000000     0.696500000000    -0.520822   
F        F      0.935000000000     0.317000000000     0.717700000000    -0.520822   
F        F      0.573100000000     0.007100000000     0.303500000000    -0.520822   
F        F      0.317000000000     0.935000000000     0.282300000000    -0.520822   
F        F      0.426900000000     0.992900000000     0.803500000000    -0.520822   
F        F      0.683000000000     0.065000000000     0.782300000000    -0.520822   
F        F      0.507100000000     0.926900000000     0.053500000000    -0.520822   
F        F      0.435000000000     0.183000000000     0.032300000000    -0.520822   
F        F      0.492900000000     0.073100000000     0.553500000000    -0.520822   
F        F      0.565000000000     0.817000000000     0.532300000000    -0.520822   


