data_CAWVIH_original

_audit_creation_method RASPA-1.0
_audit_creation_date 2022-1-30
_audit_author_name 'Felipe Lopes de Oliveira <felipe.lopes.oliveira@ibm.com>'

_cell_length_a    11.9887
_cell_length_b    17.9807
_cell_length_c    18.6365
_cell_angle_alpha 90
_cell_angle_beta  90
_cell_angle_gamma 90
_cell_volume      4017.38

_symmetry_cell_setting          triclinic
_symmetry_space_group_name_Hall 'P 1'
_symmetry_space_group_name_H-M  'P 1'
_symmetry_Int_Tables_number     1

_symmetry_equiv_pos_as_xyz 'x,y,z'

loop_
_atom_site_label
_atom_site_type_symbol
_atom_site_fract_x
_atom_site_fract_y
_atom_site_fract_z
_atom_site_charge
Zn       Zn     0.610390000000     0.802420000000     0.991030000000     0.48354    
Zn       Zn     0.889610000000     0.802420000000     0.008970000000     0.48354    
Zn       Zn     0.389610000000     0.697580000000     0.991030000000     0.48354    
Zn       Zn     0.110390000000     0.697580000000     0.008970000000     0.48354    
Zn       Zn     0.389610000000     0.197580000000     0.008970000000     0.48354    
Zn       Zn     0.110390000000     0.197580000000     0.991030000000     0.48354    
Zn       Zn     0.610390000000     0.302420000000     0.008970000000     0.48354    
Zn       Zn     0.889610000000     0.302420000000     0.991030000000     0.48354    
H        H      0.126000000000     0.256700000000     0.207300000000     0.0576375  
H        H      0.449500000000     0.989700000000     0.077400000000     0.0576375  
H        H      0.116600000000     0.170400000000     0.764600000000     0.0576375  
H        H      0.350900000000     0.079700000000     0.138400000000     0.0576375  
H        H      0.113900000000     0.169300000000     0.641500000000     0.0576375  
H        H      0.145300000000     0.196200000000     0.409900000000     0.0576375  
H        H      0.103500000000     0.934900000000     0.173600000000     0.0576375  
H        H      0.204200000000     0.844800000000     0.115300000000     0.0576375  
H        H      0.209700000000     0.163000000000     0.143100000000     0.0576375  
H        H      0.141900000000     0.194500000000     0.532400000000     0.0576375  
H        H      0.991400000000     0.106400000000     0.339100000000     0.0576375  
H        H      0.074500000000     0.011500000000     0.273800000000     0.0576375  
H        H      0.374000000000     0.256700000000     0.792700000000     0.0576375  
H        H      0.050500000000     0.989700000000     0.922600000000     0.0576375  
H        H      0.383400000000     0.170400000000     0.235400000000     0.0576375  
H        H      0.149100000000     0.079700000000     0.861600000000     0.0576375  
H        H      0.386100000000     0.169300000000     0.358500000000     0.0576375  
H        H      0.354700000000     0.196200000000     0.590100000000     0.0576375  
H        H      0.396500000000     0.934900000000     0.826400000000     0.0576375  
H        H      0.295800000000     0.844800000000     0.884700000000     0.0576375  
H        H      0.290300000000     0.163000000000     0.856900000000     0.0576375  
H        H      0.358100000000     0.194500000000     0.467600000000     0.0576375  
H        H      0.508600000000     0.106400000000     0.660900000000     0.0576375  
H        H      0.425500000000     0.011500000000     0.726200000000     0.0576375  
H        H      0.874000000000     0.243300000000     0.207300000000     0.0576375  
H        H      0.550500000000     0.510300000000     0.077400000000     0.0576375  
H        H      0.883400000000     0.329600000000     0.764600000000     0.0576375  
H        H      0.649100000000     0.420300000000     0.138400000000     0.0576375  
H        H      0.886100000000     0.330700000000     0.641500000000     0.0576375  
H        H      0.854700000000     0.303800000000     0.409900000000     0.0576375  
H        H      0.896500000000     0.565100000000     0.173600000000     0.0576375  
H        H      0.795800000000     0.655200000000     0.115300000000     0.0576375  
H        H      0.790300000000     0.337000000000     0.143100000000     0.0576375  
H        H      0.858100000000     0.305500000000     0.532400000000     0.0576375  
H        H      0.008600000000     0.393600000000     0.339100000000     0.0576375  
H        H      0.925500000000     0.488500000000     0.273800000000     0.0576375  
H        H      0.626000000000     0.243300000000     0.792700000000     0.0576375  
H        H      0.949500000000     0.510300000000     0.922600000000     0.0576375  
H        H      0.616600000000     0.329600000000     0.235400000000     0.0576375  
H        H      0.850900000000     0.420300000000     0.861600000000     0.0576375  
H        H      0.613900000000     0.330700000000     0.358500000000     0.0576375  
H        H      0.645300000000     0.303800000000     0.590100000000     0.0576375  
H        H      0.603500000000     0.565100000000     0.826400000000     0.0576375  
H        H      0.704200000000     0.655200000000     0.884700000000     0.0576375  
H        H      0.709700000000     0.337000000000     0.856900000000     0.0576375  
H        H      0.641900000000     0.305500000000     0.467600000000     0.0576375  
H        H      0.491400000000     0.393600000000     0.660900000000     0.0576375  
H        H      0.574500000000     0.488500000000     0.726200000000     0.0576375  
H        H      0.874000000000     0.743300000000     0.792700000000     0.0576375  
H        H      0.550500000000     0.010300000000     0.922600000000     0.0576375  
H        H      0.883400000000     0.829600000000     0.235400000000     0.0576375  
H        H      0.649100000000     0.920300000000     0.861600000000     0.0576375  
H        H      0.886100000000     0.830700000000     0.358500000000     0.0576375  
H        H      0.854700000000     0.803800000000     0.590100000000     0.0576375  
H        H      0.896500000000     0.065100000000     0.826400000000     0.0576375  
H        H      0.795800000000     0.155200000000     0.884700000000     0.0576375  
H        H      0.790300000000     0.837000000000     0.856900000000     0.0576375  
H        H      0.858100000000     0.805500000000     0.467600000000     0.0576375  
H        H      0.008600000000     0.893600000000     0.660900000000     0.0576375  
H        H      0.925500000000     0.988500000000     0.726200000000     0.0576375  
H        H      0.626000000000     0.743300000000     0.207300000000     0.0576375  
H        H      0.949500000000     0.010300000000     0.077400000000     0.0576375  
H        H      0.616600000000     0.829600000000     0.764600000000     0.0576375  
H        H      0.850900000000     0.920300000000     0.138400000000     0.0576375  
H        H      0.613900000000     0.830700000000     0.641500000000     0.0576375  
H        H      0.645300000000     0.803800000000     0.409900000000     0.0576375  
H        H      0.603500000000     0.065100000000     0.173600000000     0.0576375  
H        H      0.704200000000     0.155200000000     0.115300000000     0.0576375  
H        H      0.709700000000     0.837000000000     0.143100000000     0.0576375  
H        H      0.641900000000     0.805500000000     0.532400000000     0.0576375  
H        H      0.491400000000     0.893600000000     0.339100000000     0.0576375  
H        H      0.574500000000     0.988500000000     0.273800000000     0.0576375  
H        H      0.126000000000     0.756700000000     0.792700000000     0.0576375  
H        H      0.449500000000     0.489700000000     0.922600000000     0.0576375  
H        H      0.116600000000     0.670400000000     0.235400000000     0.0576375  
H        H      0.350900000000     0.579700000000     0.861600000000     0.0576375  
H        H      0.113900000000     0.669300000000     0.358500000000     0.0576375  
H        H      0.145300000000     0.696200000000     0.590100000000     0.0576375  
H        H      0.103500000000     0.434900000000     0.826400000000     0.0576375  
H        H      0.204200000000     0.344800000000     0.884700000000     0.0576375  
H        H      0.209700000000     0.663000000000     0.856900000000     0.0576375  
H        H      0.141900000000     0.694500000000     0.467600000000     0.0576375  
H        H      0.991400000000     0.606400000000     0.660900000000     0.0576375  
H        H      0.074500000000     0.511500000000     0.726200000000     0.0576375  
H        H      0.374000000000     0.756700000000     0.207300000000     0.0576375  
H        H      0.050500000000     0.489700000000     0.077400000000     0.0576375  
H        H      0.383400000000     0.670400000000     0.764600000000     0.0576375  
H        H      0.149100000000     0.579700000000     0.138400000000     0.0576375  
H        H      0.386100000000     0.669300000000     0.641500000000     0.0576375  
H        H      0.354700000000     0.696200000000     0.409900000000     0.0576375  
H        H      0.396500000000     0.434900000000     0.173600000000     0.0576375  
H        H      0.295800000000     0.344800000000     0.115300000000     0.0576375  
H        H      0.290300000000     0.663000000000     0.143100000000     0.0576375  
H        H      0.358100000000     0.694500000000     0.532400000000     0.0576375  
H        H      0.508600000000     0.606400000000     0.339100000000     0.0576375  
H        H      0.425500000000     0.511500000000     0.273800000000     0.0576375  
C        C      0.401500000000     0.849300000000     0.052400000000     0.000477455
C        C      0.337300000000     0.907700000000     0.090000000000     0.000477455
C        C      0.116300000000     0.207500000000     0.221400000000     0.000477455
C        C      0.051900000000     0.191500000000     0.280400000000     0.000477455
C        C      0.380300000000     0.978300000000     0.097100000000     0.000477455
C        C      0.069100000000     0.202500000000     0.740100000000     0.000477455
C        C      0.320500000000     0.032400000000     0.133600000000     0.000477455
C        C      0.216400000000     0.017700000000     0.163300000000     0.000477455
C        C      0.155000000000     0.076700000000     0.202200000000     0.000477455
C        C      0.067900000000     0.202300000000     0.665900000000     0.000477455
C        C      0.085800000000     0.217900000000     0.434100000000     0.000477455
C        C      0.173400000000     0.946300000000     0.155000000000     0.000477455
C        C      0.233700000000     0.892500000000     0.119600000000     0.000477455
C        C      0.166700000000     0.151000000000     0.183000000000     0.000477455
C        C      0.083800000000     0.217600000000     0.507900000000     0.000477455
C        C      0.036000000000     0.117900000000     0.299800000000     0.000477455
C        C      0.086600000000     0.060800000000     0.260700000000     0.000477455
C        C      0.098500000000     0.849300000000     0.947600000000     0.000477455
C        C      0.162700000000     0.907700000000     0.910000000000     0.000477455
C        C      0.383700000000     0.207500000000     0.778600000000     0.000477455
C        C      0.448100000000     0.191500000000     0.719600000000     0.000477455
C        C      0.119700000000     0.978300000000     0.902900000000     0.000477455
C        C      0.430900000000     0.202500000000     0.259900000000     0.000477455
C        C      0.179500000000     0.032400000000     0.866400000000     0.000477455
C        C      0.283600000000     0.017700000000     0.836700000000     0.000477455
C        C      0.345000000000     0.076700000000     0.797800000000     0.000477455
C        C      0.432100000000     0.202300000000     0.334100000000     0.000477455
C        C      0.414200000000     0.217900000000     0.565900000000     0.000477455
C        C      0.326600000000     0.946300000000     0.845000000000     0.000477455
C        C      0.266300000000     0.892500000000     0.880400000000     0.000477455
C        C      0.333300000000     0.151000000000     0.817000000000     0.000477455
C        C      0.416200000000     0.217600000000     0.492100000000     0.000477455
C        C      0.464000000000     0.117900000000     0.700200000000     0.000477455
C        C      0.413400000000     0.060800000000     0.739300000000     0.000477455
C        C      0.598500000000     0.650700000000     0.052400000000     0.000477455
C        C      0.662700000000     0.592300000000     0.090000000000     0.000477455
C        C      0.883700000000     0.292500000000     0.221400000000     0.000477455
C        C      0.948100000000     0.308500000000     0.280400000000     0.000477455
C        C      0.619700000000     0.521700000000     0.097100000000     0.000477455
C        C      0.930900000000     0.297500000000     0.740100000000     0.000477455
C        C      0.679500000000     0.467600000000     0.133600000000     0.000477455
C        C      0.783600000000     0.482300000000     0.163300000000     0.000477455
C        C      0.845000000000     0.423300000000     0.202200000000     0.000477455
C        C      0.932100000000     0.297700000000     0.665900000000     0.000477455
C        C      0.914200000000     0.282100000000     0.434100000000     0.000477455
C        C      0.826600000000     0.553700000000     0.155000000000     0.000477455
C        C      0.766300000000     0.607500000000     0.119600000000     0.000477455
C        C      0.833300000000     0.349000000000     0.183000000000     0.000477455
C        C      0.916200000000     0.282400000000     0.507900000000     0.000477455
C        C      0.964000000000     0.382100000000     0.299800000000     0.000477455
C        C      0.913400000000     0.439200000000     0.260700000000     0.000477455
C        C      0.901500000000     0.650700000000     0.947600000000     0.000477455
C        C      0.837300000000     0.592300000000     0.910000000000     0.000477455
C        C      0.616300000000     0.292500000000     0.778600000000     0.000477455
C        C      0.551900000000     0.308500000000     0.719600000000     0.000477455
C        C      0.880300000000     0.521700000000     0.902900000000     0.000477455
C        C      0.569100000000     0.297500000000     0.259900000000     0.000477455
C        C      0.820500000000     0.467600000000     0.866400000000     0.000477455
C        C      0.716400000000     0.482300000000     0.836700000000     0.000477455
C        C      0.655000000000     0.423300000000     0.797800000000     0.000477455
C        C      0.567900000000     0.297700000000     0.334100000000     0.000477455
C        C      0.585800000000     0.282100000000     0.565900000000     0.000477455
C        C      0.673400000000     0.553700000000     0.845000000000     0.000477455
C        C      0.733700000000     0.607500000000     0.880400000000     0.000477455
C        C      0.666700000000     0.349000000000     0.817000000000     0.000477455
C        C      0.583800000000     0.282400000000     0.492100000000     0.000477455
C        C      0.536000000000     0.382100000000     0.700200000000     0.000477455
C        C      0.586600000000     0.439200000000     0.739300000000     0.000477455
C        C      0.598500000000     0.150700000000     0.947600000000     0.000477455
C        C      0.662700000000     0.092300000000     0.910000000000     0.000477455
C        C      0.883700000000     0.792500000000     0.778600000000     0.000477455
C        C      0.948100000000     0.808500000000     0.719600000000     0.000477455
C        C      0.619700000000     0.021700000000     0.902900000000     0.000477455
C        C      0.930900000000     0.797500000000     0.259900000000     0.000477455
C        C      0.679500000000     0.967600000000     0.866400000000     0.000477455
C        C      0.783600000000     0.982300000000     0.836700000000     0.000477455
C        C      0.845000000000     0.923300000000     0.797800000000     0.000477455
C        C      0.932100000000     0.797700000000     0.334100000000     0.000477455
C        C      0.914200000000     0.782100000000     0.565900000000     0.000477455
C        C      0.826600000000     0.053700000000     0.845000000000     0.000477455
C        C      0.766300000000     0.107500000000     0.880400000000     0.000477455
C        C      0.833300000000     0.849000000000     0.817000000000     0.000477455
C        C      0.916200000000     0.782400000000     0.492100000000     0.000477455
C        C      0.964000000000     0.882100000000     0.700200000000     0.000477455
C        C      0.913400000000     0.939200000000     0.739300000000     0.000477455
C        C      0.901500000000     0.150700000000     0.052400000000     0.000477455
C        C      0.837300000000     0.092300000000     0.090000000000     0.000477455
C        C      0.616300000000     0.792500000000     0.221400000000     0.000477455
C        C      0.551900000000     0.808500000000     0.280400000000     0.000477455
C        C      0.880300000000     0.021700000000     0.097100000000     0.000477455
C        C      0.569100000000     0.797500000000     0.740100000000     0.000477455
C        C      0.820500000000     0.967600000000     0.133600000000     0.000477455
C        C      0.716400000000     0.982300000000     0.163300000000     0.000477455
C        C      0.655000000000     0.923300000000     0.202200000000     0.000477455
C        C      0.567900000000     0.797700000000     0.665900000000     0.000477455
C        C      0.585800000000     0.782100000000     0.434100000000     0.000477455
C        C      0.673400000000     0.053700000000     0.155000000000     0.000477455
C        C      0.733700000000     0.107500000000     0.119600000000     0.000477455
C        C      0.666700000000     0.849000000000     0.183000000000     0.000477455
C        C      0.583800000000     0.782400000000     0.507900000000     0.000477455
C        C      0.536000000000     0.882100000000     0.299800000000     0.000477455
C        C      0.586600000000     0.939200000000     0.260700000000     0.000477455
C        C      0.401500000000     0.349300000000     0.947600000000     0.000477455
C        C      0.337300000000     0.407700000000     0.910000000000     0.000477455
C        C      0.116300000000     0.707500000000     0.778600000000     0.000477455
C        C      0.051900000000     0.691500000000     0.719600000000     0.000477455
C        C      0.380300000000     0.478300000000     0.902900000000     0.000477455
C        C      0.069100000000     0.702500000000     0.259900000000     0.000477455
C        C      0.320500000000     0.532400000000     0.866400000000     0.000477455
C        C      0.216400000000     0.517700000000     0.836700000000     0.000477455
C        C      0.155000000000     0.576700000000     0.797800000000     0.000477455
C        C      0.067900000000     0.702300000000     0.334100000000     0.000477455
C        C      0.085800000000     0.717900000000     0.565900000000     0.000477455
C        C      0.173400000000     0.446300000000     0.845000000000     0.000477455
C        C      0.233700000000     0.392500000000     0.880400000000     0.000477455
C        C      0.166700000000     0.651000000000     0.817000000000     0.000477455
C        C      0.083800000000     0.717600000000     0.492100000000     0.000477455
C        C      0.036000000000     0.617900000000     0.700200000000     0.000477455
C        C      0.086600000000     0.560800000000     0.739300000000     0.000477455
C        C      0.098500000000     0.349300000000     0.052400000000     0.000477455
C        C      0.162700000000     0.407700000000     0.090000000000     0.000477455
C        C      0.383700000000     0.707500000000     0.221400000000     0.000477455
C        C      0.448100000000     0.691500000000     0.280400000000     0.000477455
C        C      0.119700000000     0.478300000000     0.097100000000     0.000477455
C        C      0.430900000000     0.702500000000     0.740100000000     0.000477455
C        C      0.179500000000     0.532400000000     0.133600000000     0.000477455
C        C      0.283600000000     0.517700000000     0.163300000000     0.000477455
C        C      0.345000000000     0.576700000000     0.202200000000     0.000477455
C        C      0.432100000000     0.702300000000     0.665900000000     0.000477455
C        C      0.414200000000     0.717900000000     0.434100000000     0.000477455
C        C      0.326600000000     0.446300000000     0.155000000000     0.000477455
C        C      0.266300000000     0.392500000000     0.119600000000     0.000477455
C        C      0.333300000000     0.651000000000     0.183000000000     0.000477455
C        C      0.416200000000     0.717600000000     0.507900000000     0.000477455
C        C      0.464000000000     0.617900000000     0.299800000000     0.000477455
C        C      0.413400000000     0.560800000000     0.260700000000     0.000477455
C        C      0.000000000000     0.250000000000     0.395800000000     0.000477455
C        C      0.000000000000     0.250000000000     0.626800000000     0.000477455
C        C      0.000000000000     0.250000000000     0.858700000000     0.000477455
C        C      0.000000000000     0.250000000000     0.547100000000     0.000477455
C        C      0.000000000000     0.250000000000     0.778200000000     0.000477455
C        C      0.500000000000     0.250000000000     0.604200000000     0.000477455
C        C      0.500000000000     0.250000000000     0.373200000000     0.000477455
C        C      0.500000000000     0.250000000000     0.141300000000     0.000477455
C        C      0.500000000000     0.250000000000     0.452900000000     0.000477455
C        C      0.500000000000     0.250000000000     0.221800000000     0.000477455
C        C      0.000000000000     0.750000000000     0.604200000000     0.000477455
C        C      0.000000000000     0.750000000000     0.373200000000     0.000477455
C        C      0.000000000000     0.750000000000     0.141300000000     0.000477455
C        C      0.000000000000     0.750000000000     0.452900000000     0.000477455
C        C      0.000000000000     0.750000000000     0.221800000000     0.000477455
C        C      0.500000000000     0.750000000000     0.395800000000     0.000477455
C        C      0.500000000000     0.750000000000     0.626800000000     0.000477455
C        C      0.500000000000     0.750000000000     0.858700000000     0.000477455
C        C      0.500000000000     0.750000000000     0.547100000000     0.000477455
C        C      0.500000000000     0.750000000000     0.778200000000     0.000477455
N        N      0.000000000000     0.250000000000     0.319600000000    -0.185919   
N        N      0.500000000000     0.250000000000     0.680400000000    -0.185919   
N        N      0.000000000000     0.750000000000     0.680400000000    -0.185919   
N        N      0.500000000000     0.750000000000     0.319600000000    -0.185919   
O        O      0.494800000000     0.867690000000     0.026580000000    -0.311869   
O        O      0.077700000000     0.216320000000     0.889500000000    -0.311869   
O        O      0.359800000000     0.785420000000     0.049000000000    -0.311869   
O        O      0.005200000000     0.867690000000     0.973420000000    -0.311869   
O        O      0.422300000000     0.216320000000     0.110500000000    -0.311869   
O        O      0.140200000000     0.785420000000     0.951000000000    -0.311869   
O        O      0.505200000000     0.632310000000     0.026580000000    -0.311869   
O        O      0.922300000000     0.283680000000     0.889500000000    -0.311869   
O        O      0.640200000000     0.714580000000     0.049000000000    -0.311869   
O        O      0.994800000000     0.632310000000     0.973420000000    -0.311869   
O        O      0.577700000000     0.283680000000     0.110500000000    -0.311869   
O        O      0.859800000000     0.714580000000     0.951000000000    -0.311869   
O        O      0.505200000000     0.132310000000     0.973420000000    -0.311869   
O        O      0.922300000000     0.783680000000     0.110500000000    -0.311869   
O        O      0.640200000000     0.214580000000     0.951000000000    -0.311869   
O        O      0.994800000000     0.132310000000     0.026580000000    -0.311869   
O        O      0.577700000000     0.783680000000     0.889500000000    -0.311869   
O        O      0.859800000000     0.214580000000     0.049000000000    -0.311869   
O        O      0.494800000000     0.367690000000     0.973420000000    -0.311869   
O        O      0.077700000000     0.716320000000     0.110500000000    -0.311869   
O        O      0.359800000000     0.285420000000     0.951000000000    -0.311869   
O        O      0.005200000000     0.367690000000     0.026580000000    -0.311869   
O        O      0.422300000000     0.716320000000     0.889500000000    -0.311869   
O        O      0.140200000000     0.285420000000     0.049000000000    -0.311869   
O        O      0.750000000000     0.853200000000     0.000000000000    -0.311869   
O        O      0.250000000000     0.646800000000     0.000000000000    -0.311869   
O        O      0.250000000000     0.146800000000     0.000000000000    -0.311869   
O        O      0.750000000000     0.353200000000     0.000000000000    -0.311869   


