data_CAXVUU_original

_audit_creation_method RASPA-1.0
_audit_creation_date 2022-1-29
_audit_author_name 'Felipe Lopes de Oliveira <felipe.lopes.oliveira@ibm.com>'

_cell_length_a    6.8209
_cell_length_b    15.1646
_cell_length_c    15.1646
_cell_angle_alpha 117.793
_cell_angle_beta  98.6228
_cell_angle_gamma 98.6228
_cell_volume      1327.89

_symmetry_cell_setting          triclinic
_symmetry_space_group_name_Hall 'P 1'
_symmetry_space_group_name_H-M  'P 1'
_symmetry_Int_Tables_number     1

_symmetry_equiv_pos_as_xyz 'x,y,z'

loop_
_atom_site_label
_atom_site_type_symbol
_atom_site_fract_x
_atom_site_fract_y
_atom_site_fract_z
_atom_site_charge
Fe       Fe     0.895100000000     0.686500000000     0.413400000000     0.81431    
Fe       Fe     0.481700000000     0.586600000000     0.273100000000     0.81431    
Fe       Fe     0.208600000000     0.726900000000     0.313500000000     0.81431    
Fe       Fe     0.104900000000     0.313500000000     0.586600000000     0.81431    
Fe       Fe     0.518300000000     0.413400000000     0.726900000000     0.81431    
Fe       Fe     0.791400000000     0.273100000000     0.686500000000     0.81431    
H        H      0.623300000000     0.010300000000     0.452600000000     0.0666215  
H        H      0.170700000000     0.547400000000     0.557700000000     0.0666215  
H        H      0.613000000000     0.442300000000     0.989700000000     0.0666215  
H        H      0.376700000000     0.989700000000     0.547400000000     0.0666215  
H        H      0.829300000000     0.452600000000     0.442300000000     0.0666215  
H        H      0.387000000000     0.557700000000     0.010300000000     0.0666215  
C        C      0.658500000000     0.822000000000     0.384700000000     0.0805048  
C        C      0.840200000000     0.912500000000     0.461000000000     0.0805048  
C        C      0.046300000000     0.899100000000     0.471100000000     0.0805048  
C        C      0.805800000000     0.000500000000     0.463900000000     0.0805048  
C        C      0.273800000000     0.615300000000     0.437300000000     0.0805048  
C        C      0.379200000000     0.539000000000     0.451500000000     0.0805048  
C        C      0.575200000000     0.528900000000     0.428000000000     0.0805048  
C        C      0.341900000000     0.536100000000     0.536600000000     0.0805048  
C        C      0.836500000000     0.562700000000     0.178000000000     0.0805048  
C        C      0.927700000000     0.548500000000     0.087500000000     0.0805048  
C        C      0.147200000000     0.572000000000     0.100900000000     0.0805048  
C        C      0.805300000000     0.463400000000     0.999500000000     0.0805048  
C        C      0.341500000000     0.178000000000     0.615300000000     0.0805048  
C        C      0.159800000000     0.087500000000     0.539000000000     0.0805048  
C        C      0.953700000000     0.100900000000     0.528900000000     0.0805048  
C        C      0.194200000000     0.999500000000     0.536100000000     0.0805048  
C        C      0.726200000000     0.384700000000     0.562700000000     0.0805048  
C        C      0.620800000000     0.461000000000     0.548500000000     0.0805048  
C        C      0.424800000000     0.471100000000     0.572000000000     0.0805048  
C        C      0.658100000000     0.463900000000     0.463400000000     0.0805048  
C        C      0.163500000000     0.437300000000     0.822000000000     0.0805048  
C        C      0.072300000000     0.451500000000     0.912500000000     0.0805048  
C        C      0.852800000000     0.428000000000     0.899100000000     0.0805048  
C        C      0.194700000000     0.536600000000     0.000500000000     0.0805048  
O        O      0.669900000000     0.730900000000     0.356400000000    -0.400984   
O        O      0.476300000000     0.861200000000     0.392300000000    -0.400984   
O        O      0.079000000000     0.809800000000     0.431400000000    -0.400984   
O        O      0.313500000000     0.643600000000     0.374500000000    -0.400984   
O        O      0.084000000000     0.607700000000     0.468900000000    -0.400984   
O        O      0.647600000000     0.568600000000     0.378400000000    -0.400984   
O        O      0.939000000000     0.625500000000     0.269100000000    -0.400984   
O        O      0.615100000000     0.531100000000     0.138800000000    -0.400984   
O        O      0.269200000000     0.621600000000     0.190200000000    -0.400984   
O        O      0.330100000000     0.269100000000     0.643600000000    -0.400984   
O        O      0.523700000000     0.138800000000     0.607700000000    -0.400984   
O        O      0.921000000000     0.190200000000     0.568600000000    -0.400984   
O        O      0.686500000000     0.356400000000     0.625500000000    -0.400984   
O        O      0.916000000000     0.392300000000     0.531100000000    -0.400984   
O        O      0.352400000000     0.431400000000     0.621600000000    -0.400984   
O        O      0.061000000000     0.374500000000     0.730900000000    -0.400984   
O        O      0.384900000000     0.468900000000     0.861200000000    -0.400984   
O        O      0.730800000000     0.378400000000     0.809800000000    -0.400984   


