data_CAXVII_original

_audit_creation_method RASPA-1.0
_audit_creation_date 2022-1-28
_audit_author_name 'Felipe Lopes de Oliveira <felipe.lopes.oliveira@ibm.com>'

_cell_length_a    6.8945
_cell_length_b    15.2403
_cell_length_c    15.2403
_cell_angle_alpha 117.768
_cell_angle_beta  98.673
_cell_angle_gamma 98.673
_cell_volume      1355.29

_symmetry_cell_setting          triclinic
_symmetry_space_group_name_Hall 'P 1'
_symmetry_space_group_name_H-M  'P 1'
_symmetry_Int_Tables_number     1

_symmetry_equiv_pos_as_xyz 'x,y,z'

loop_
_atom_site_label
_atom_site_type_symbol
_atom_site_fract_x
_atom_site_fract_y
_atom_site_fract_z
_atom_site_charge
Fe       Fe     0.889000000000     0.679200000000     0.412600000000     0.76041    
Fe       Fe     0.476400000000     0.587400000000     0.266600000000     0.76041    
Fe       Fe     0.209800000000     0.733400000000     0.320800000000     0.76041    
Fe       Fe     0.111000000000     0.320800000000     0.587400000000     0.76041    
Fe       Fe     0.523600000000     0.412600000000     0.733400000000     0.76041    
Fe       Fe     0.790200000000     0.266600000000     0.679200000000     0.76041    
H        H      0.658300000000     0.030700000000     0.462200000000     0.0639063  
H        H      0.196100000000     0.537800000000     0.568500000000     0.0639063  
H        H      0.627600000000     0.431500000000     0.969300000000     0.0639063  
H        H      0.341700000000     0.969300000000     0.537800000000     0.0639063  
H        H      0.803900000000     0.462200000000     0.431500000000     0.0639063  
H        H      0.372400000000     0.568500000000     0.030700000000     0.0639063  
C        C      0.628600000000     0.829200000000     0.382600000000     0.137405   
C        C      0.838100000000     0.910600000000     0.448800000000     0.137405   
C        C      0.045800000000     0.900800000000     0.464600000000     0.137405   
C        C      0.797600000000     0.003300000000     0.472500000000     0.137405   
C        C      0.246000000000     0.617400000000     0.446600000000     0.137405   
C        C      0.389300000000     0.551200000000     0.461800000000     0.137405   
C        C      0.581200000000     0.535400000000     0.436200000000     0.137405   
C        C      0.325100000000     0.527500000000     0.530800000000     0.137405   
C        C      0.799400000000     0.553400000000     0.170800000000     0.137405   
C        C      0.927500000000     0.538200000000     0.089400000000     0.137405   
C        C      0.145000000000     0.563800000000     0.099200000000     0.137405   
C        C      0.794300000000     0.469200000000     0.996700000000     0.137405   
C        C      0.371400000000     0.170800000000     0.617400000000     0.137405   
C        C      0.161900000000     0.089400000000     0.551200000000     0.137405   
C        C      0.954200000000     0.099200000000     0.535400000000     0.137405   
C        C      0.202400000000     0.996700000000     0.527500000000     0.137405   
C        C      0.754000000000     0.382600000000     0.553400000000     0.137405   
C        C      0.610700000000     0.448800000000     0.538200000000     0.137405   
C        C      0.418800000000     0.464600000000     0.563800000000     0.137405   
C        C      0.674900000000     0.472500000000     0.469200000000     0.137405   
C        C      0.200600000000     0.446600000000     0.829200000000     0.137405   
C        C      0.072500000000     0.461800000000     0.910600000000     0.137405   
C        C      0.855000000000     0.436200000000     0.900800000000     0.137405   
C        C      0.205700000000     0.530800000000     0.003300000000     0.137405   
O        O      0.668000000000     0.748500000000     0.353500000000    -0.457979   
O        O      0.473600000000     0.844800000000     0.376000000000    -0.457979   
O        O      0.077000000000     0.817000000000     0.444000000000    -0.457979   
O        O      0.314500000000     0.646500000000     0.395000000000    -0.457979   
O        O      0.097600000000     0.624000000000     0.468800000000    -0.457979   
O        O      0.633000000000     0.556000000000     0.373000000000    -0.457979   
O        O      0.919500000000     0.605000000000     0.251500000000    -0.457979   
O        O      0.628800000000     0.531200000000     0.155200000000    -0.457979   
O        O      0.260000000000     0.627000000000     0.183000000000    -0.457979   
O        O      0.332000000000     0.251500000000     0.646500000000    -0.457979   
O        O      0.526400000000     0.155200000000     0.624000000000    -0.457979   
O        O      0.923000000000     0.183000000000     0.556000000000    -0.457979   
O        O      0.685500000000     0.353500000000     0.605000000000    -0.457979   
O        O      0.902400000000     0.376000000000     0.531200000000    -0.457979   
O        O      0.367000000000     0.444000000000     0.627000000000    -0.457979   
O        O      0.080500000000     0.395000000000     0.748500000000    -0.457979   
O        O      0.371200000000     0.468800000000     0.844800000000    -0.457979   
O        O      0.740000000000     0.373000000000     0.817000000000    -0.457979   


