data_CAXWAB_original

_audit_creation_method RASPA-1.0
_audit_creation_date 2022-1-28
_audit_author_name 'Felipe Lopes de Oliveira <felipe.lopes.oliveira@ibm.com>'

_cell_length_a    6.8376
_cell_length_b    15.161
_cell_length_c    15.161
_cell_angle_alpha 117.781
_cell_angle_beta  98.6463
_cell_angle_gamma 98.6461
_cell_volume      1330.34

_symmetry_cell_setting          triclinic
_symmetry_space_group_name_Hall 'P 1'
_symmetry_space_group_name_H-M  'P 1'
_symmetry_Int_Tables_number     1

_symmetry_equiv_pos_as_xyz 'x,y,z'

loop_
_atom_site_label
_atom_site_type_symbol
_atom_site_fract_x
_atom_site_fract_y
_atom_site_fract_z
_atom_site_charge
Fe       Fe     0.483800000000     0.585900000000     0.271100000000     0.817934   
Fe       Fe     0.212700000000     0.728900000000     0.314800000000     0.817934   
Fe       Fe     0.897900000000     0.685200000000     0.414100000000     0.817934   
Fe       Fe     0.516200000000     0.414100000000     0.728900000000     0.817934   
Fe       Fe     0.787300000000     0.271100000000     0.685200000000     0.817934   
Fe       Fe     0.102100000000     0.314800000000     0.585900000000     0.817934   
H        H      0.194300000000     0.540400000000     0.559900000000     0.0702968  
H        H      0.634400000000     0.440100000000     0.980500000000     0.0702968  
H        H      0.653900000000     0.019500000000     0.459600000000     0.0702968  
H        H      0.805700000000     0.459600000000     0.440100000000     0.0702968  
H        H      0.365600000000     0.559900000000     0.019500000000     0.0702968  
H        H      0.346100000000     0.980500000000     0.540400000000     0.0702968  
C        C      0.276900000000     0.618000000000     0.438800000000     0.0747927  
C        C      0.378300000000     0.546400000000     0.456100000000     0.0747927  
C        C      0.572500000000     0.534800000000     0.432000000000     0.0747927  
C        C      0.338100000000     0.527000000000     0.531000000000     0.0747927  
C        C      0.838100000000     0.561200000000     0.179200000000     0.0747927  
C        C      0.922200000000     0.543900000000     0.090300000000     0.0747927  
C        C      0.140500000000     0.568000000000     0.102800000000     0.0747927  
C        C      0.807100000000     0.469000000000     0.996000000000     0.0747927  
C        C      0.658900000000     0.820800000000     0.382000000000     0.0747927  
C        C      0.831900000000     0.909700000000     0.453600000000     0.0747927  
C        C      0.037700000000     0.897200000000     0.465200000000     0.0747927  
C        C      0.811100000000     0.004000000000     0.473000000000     0.0747927  
C        C      0.723100000000     0.382000000000     0.561200000000     0.0747927  
C        C      0.621700000000     0.453600000000     0.543900000000     0.0747927  
C        C      0.427500000000     0.465200000000     0.568000000000     0.0747927  
C        C      0.661900000000     0.473000000000     0.469000000000     0.0747927  
C        C      0.161900000000     0.438800000000     0.820800000000     0.0747927  
C        C      0.077800000000     0.456100000000     0.909700000000     0.0747927  
C        C      0.859500000000     0.432000000000     0.897200000000     0.0747927  
C        C      0.192900000000     0.531000000000     0.004000000000     0.0747927  
C        C      0.341100000000     0.179200000000     0.618000000000     0.0747927  
C        C      0.168100000000     0.090300000000     0.546400000000     0.0747927  
C        C      0.962300000000     0.102800000000     0.534800000000     0.0747927  
C        C      0.188900000000     0.996000000000     0.527000000000     0.0747927  
O        O      0.322900000000     0.644400000000     0.372800000000    -0.395801   
O        O      0.094300000000     0.613900000000     0.476500000000    -0.395801   
O        O      0.645400000000     0.565700000000     0.374700000000    -0.395801   
O        O      0.950100000000     0.627200000000     0.271600000000    -0.395801   
O        O      0.617800000000     0.523500000000     0.137400000000    -0.395801   
O        O      0.270700000000     0.625300000000     0.191000000000    -0.395801   
O        O      0.678500000000     0.728400000000     0.355600000000    -0.395801   
O        O      0.480400000000     0.862600000000     0.386100000000    -0.395801   
O        O      0.079700000000     0.809000000000     0.434300000000    -0.395801   
O        O      0.677100000000     0.355600000000     0.627200000000    -0.395801   
O        O      0.905700000000     0.386100000000     0.523500000000    -0.395801   
O        O      0.354600000000     0.434300000000     0.625300000000    -0.395801   
O        O      0.049900000000     0.372800000000     0.728400000000    -0.395801   
O        O      0.382200000000     0.476500000000     0.862600000000    -0.395801   
O        O      0.729300000000     0.374700000000     0.809000000000    -0.395801   
O        O      0.321500000000     0.271600000000     0.644400000000    -0.395801   
O        O      0.519600000000     0.137400000000     0.613900000000    -0.395801   
O        O      0.920300000000     0.191000000000     0.565700000000    -0.395801   


