data_CAXWEF_original

_audit_creation_method RASPA-1.0
_audit_creation_date 2022-1-30
_audit_author_name 'Felipe Lopes de Oliveira <felipe.lopes.oliveira@ibm.com>'

_cell_length_a    6.843
_cell_length_b    15.159
_cell_length_c    15.159
_cell_angle_alpha 117.777
_cell_angle_beta  98.6542
_cell_angle_gamma 98.6542
_cell_volume      1330.98

_symmetry_cell_setting          triclinic
_symmetry_space_group_name_Hall 'P 1'
_symmetry_space_group_name_H-M  'P 1'
_symmetry_Int_Tables_number     1

_symmetry_equiv_pos_as_xyz 'x,y,z'

loop_
_atom_site_label
_atom_site_type_symbol
_atom_site_fract_x
_atom_site_fract_y
_atom_site_fract_z
_atom_site_charge
Fe       Fe     0.891900000000     0.684900000000     0.413800000000     0.822141   
Fe       Fe     0.478100000000     0.586200000000     0.271100000000     0.822141   
Fe       Fe     0.207000000000     0.728900000000     0.315100000000     0.822141   
Fe       Fe     0.108100000000     0.315100000000     0.586200000000     0.822141   
Fe       Fe     0.521900000000     0.413800000000     0.728900000000     0.822141   
Fe       Fe     0.793000000000     0.271100000000     0.684900000000     0.822141   
H        H      0.646500000000     0.018600000000     0.462000000000     0.0709888  
H        H      0.184500000000     0.538000000000     0.556600000000     0.0709888  
H        H      0.627900000000     0.443400000000     0.981400000000     0.0709888  
H        H      0.353500000000     0.981400000000     0.538000000000     0.0709888  
H        H      0.815500000000     0.462000000000     0.443400000000     0.0709888  
H        H      0.372100000000     0.556600000000     0.018600000000     0.0709888  
C        C      0.663400000000     0.822100000000     0.384300000000     0.076934   
C        C      0.831500000000     0.912400000000     0.457200000000     0.076934   
C        C      0.033200000000     0.896800000000     0.464700000000     0.076934   
C        C      0.804700000000     0.008000000000     0.477100000000     0.076934   
C        C      0.279100000000     0.615700000000     0.437800000000     0.076934   
C        C      0.374300000000     0.542800000000     0.455200000000     0.076934   
C        C      0.568500000000     0.535300000000     0.432100000000     0.076934   
C        C      0.327600000000     0.522900000000     0.530900000000     0.076934   
C        C      0.841300000000     0.562200000000     0.177900000000     0.076934   
C        C      0.919100000000     0.544800000000     0.087600000000     0.076934   
C        C      0.136400000000     0.567900000000     0.103200000000     0.076934   
C        C      0.796700000000     0.469100000000     0.992000000000     0.076934   
C        C      0.336600000000     0.177900000000     0.615700000000     0.076934   
C        C      0.168500000000     0.087600000000     0.542800000000     0.076934   
C        C      0.966800000000     0.103200000000     0.535300000000     0.076934   
C        C      0.195300000000     0.992000000000     0.522900000000     0.076934   
C        C      0.720900000000     0.384300000000     0.562200000000     0.076934   
C        C      0.625700000000     0.457200000000     0.544800000000     0.076934   
C        C      0.431500000000     0.464700000000     0.567900000000     0.076934   
C        C      0.672400000000     0.477100000000     0.469100000000     0.076934   
C        C      0.158700000000     0.437800000000     0.822100000000     0.076934   
C        C      0.080900000000     0.455200000000     0.912400000000     0.076934   
C        C      0.863600000000     0.432100000000     0.896800000000     0.076934   
C        C      0.203300000000     0.530900000000     0.008000000000     0.076934   
O        O      0.679600000000     0.728700000000     0.352000000000    -0.400289   
O        O      0.479100000000     0.858300000000     0.383500000000    -0.400289   
O        O      0.071000000000     0.808600000000     0.431400000000    -0.400289   
O        O      0.327600000000     0.648000000000     0.376700000000    -0.400289   
O        O      0.095600000000     0.616500000000     0.474800000000    -0.400289   
O        O      0.639600000000     0.568600000000     0.377200000000    -0.400289   
O        O      0.950900000000     0.623300000000     0.271300000000    -0.400289   
O        O      0.620800000000     0.525200000000     0.141700000000    -0.400289   
O        O      0.262400000000     0.622800000000     0.191400000000    -0.400289   
O        O      0.320400000000     0.271300000000     0.648000000000    -0.400289   
O        O      0.520900000000     0.141700000000     0.616500000000    -0.400289   
O        O      0.929000000000     0.191400000000     0.568600000000    -0.400289   
O        O      0.672400000000     0.352000000000     0.623300000000    -0.400289   
O        O      0.904400000000     0.383500000000     0.525200000000    -0.400289   
O        O      0.360400000000     0.431400000000     0.622800000000    -0.400289   
O        O      0.049100000000     0.376700000000     0.728700000000    -0.400289   
O        O      0.379200000000     0.474800000000     0.858300000000    -0.400289   
O        O      0.737600000000     0.377200000000     0.808600000000    -0.400289   


