data_CELZIE_original

_audit_creation_method RASPA-1.0
_audit_creation_date 2022-1-31
_audit_author_name 'Felipe Lopes de Oliveira <felipe.lopes.oliveira@ibm.com>'

_cell_length_a    10.5698
_cell_length_b    16.0023
_cell_length_c    16.0023
_cell_angle_alpha 83.7382
_cell_angle_beta  70.7155
_cell_angle_gamma 70.7155
_cell_volume      2411.43

_symmetry_cell_setting          triclinic
_symmetry_space_group_name_Hall 'P 1'
_symmetry_space_group_name_H-M  'P 1'
_symmetry_Int_Tables_number     1

_symmetry_equiv_pos_as_xyz 'x,y,z'

loop_
_atom_site_label
_atom_site_type_symbol
_atom_site_fract_x
_atom_site_fract_y
_atom_site_fract_z
_atom_site_charge
Al       Al     0.762720000000     0.692640000000     0.173860000000     6.55064    
Al       Al     0.129220000000     0.807360000000     0.326140000000     6.55064    
Al       Al     0.936580000000     0.826140000000     0.192640000000     6.55064    
Al       Al     0.455360000000     0.673860000000     0.307360000000     6.55064    
Al       Al     0.237280000000     0.307360000000     0.826140000000     6.55064    
Al       Al     0.870780000000     0.192640000000     0.673860000000     6.55064    
Al       Al     0.063420000000     0.173860000000     0.807360000000     6.55064    
Al       Al     0.544640000000     0.326140000000     0.692640000000     6.55064    
C        C      0.846070000000     0.408940000000     0.497660000000     0.238173   
C        C      0.946510000000     0.507620000000     0.349800000000     0.238173   
C        C      0.794900000000     0.348100000000     0.570440000000     0.238173   
C        C      0.278450000000     0.383820000000     0.397480000000     0.238173   
C        C      0.986070000000     0.400120000000     0.465280000000     0.238173   
C        C      0.743630000000     0.468230000000     0.458310000000     0.238173   
C        C      0.719520000000     0.580820000000     0.330060000000     0.238173   
C        C      0.801900000000     0.512350000000     0.387330000000     0.238173   
C        C      0.038100000000     0.452470000000     0.392090000000     0.238173   
C        C      0.252670000000     0.091060000000     0.002340000000     0.238173   
C        C      0.303930000000     0.992380000000     0.150200000000     0.238173   
C        C      0.213440000000     0.151900000000     0.929560000000     0.238173   
C        C      0.559750000000     0.116180000000     0.102520000000     0.238173   
C        C      0.351470000000     0.099880000000     0.034720000000     0.238173   
C        C      0.170170000000     0.031770000000     0.041690000000     0.238173   
C        C      0.130400000000     0.919180000000     0.169940000000     0.238173   
C        C      0.201580000000     0.987650000000     0.112670000000     0.238173   
C        C      0.382660000000     0.047530000000     0.107910000000     0.238173   
C        C      0.343730000000     0.502340000000     0.908940000000     0.238173   
C        C      0.296310000000     0.650200000000     0.007620000000     0.238173   
C        C      0.365340000000     0.429560000000     0.848100000000     0.238173   
C        C      0.675930000000     0.602520000000     0.883820000000     0.238173   
C        C      0.451350000000     0.534720000000     0.900120000000     0.238173   
C        C      0.201940000000     0.541690000000     0.968230000000     0.238173   
C        C      0.049580000000     0.669940000000     0.080820000000     0.238173   
C        C      0.189230000000     0.612670000000     0.012350000000     0.238173   
C        C      0.430190000000     0.607910000000     0.952470000000     0.238173   
C        C      0.255010000000     0.997660000000     0.591060000000     0.238173   
C        C      0.454130000000     0.849800000000     0.492380000000     0.238173   
C        C      0.143000000000     0.070440000000     0.651900000000     0.238173   
C        C      0.662270000000     0.897480000000     0.616180000000     0.238173   
C        C      0.386190000000     0.965280000000     0.599880000000     0.238173   
C        C      0.211860000000     0.958310000000     0.531770000000     0.238173   
C        C      0.300340000000     0.830060000000     0.419180000000     0.238173   
C        C      0.314250000000     0.887330000000     0.487650000000     0.238173   
C        C      0.490570000000     0.892090000000     0.547530000000     0.238173   
C        C      0.153930000000     0.591060000000     0.502340000000     0.238173   
C        C      0.053490000000     0.492380000000     0.650200000000     0.238173   
C        C      0.205100000000     0.651900000000     0.429560000000     0.238173   
C        C      0.721550000000     0.616180000000     0.602520000000     0.238173   
C        C      0.013930000000     0.599880000000     0.534720000000     0.238173   
C        C      0.256370000000     0.531770000000     0.541690000000     0.238173   
C        C      0.280480000000     0.419180000000     0.669940000000     0.238173   
C        C      0.198100000000     0.487650000000     0.612670000000     0.238173   
C        C      0.961900000000     0.547530000000     0.607910000000     0.238173   
C        C      0.747330000000     0.908940000000     0.997660000000     0.238173   
C        C      0.696070000000     0.007620000000     0.849800000000     0.238173   
C        C      0.786560000000     0.848100000000     0.070440000000     0.238173   
C        C      0.440250000000     0.883820000000     0.897480000000     0.238173   
C        C      0.648530000000     0.900120000000     0.965280000000     0.238173   
C        C      0.829830000000     0.968230000000     0.958310000000     0.238173   
C        C      0.869600000000     0.080820000000     0.830060000000     0.238173   
C        C      0.798420000000     0.012350000000     0.887330000000     0.238173   
C        C      0.617340000000     0.952470000000     0.892090000000     0.238173   
C        C      0.656270000000     0.497660000000     0.091060000000     0.238173   
C        C      0.703690000000     0.349800000000     0.992380000000     0.238173   
C        C      0.634660000000     0.570440000000     0.151900000000     0.238173   
C        C      0.324070000000     0.397480000000     0.116180000000     0.238173   
C        C      0.548650000000     0.465280000000     0.099880000000     0.238173   
C        C      0.798060000000     0.458310000000     0.031770000000     0.238173   
C        C      0.950420000000     0.330060000000     0.919180000000     0.238173   
C        C      0.810770000000     0.387330000000     0.987650000000     0.238173   
C        C      0.569810000000     0.392090000000     0.047530000000     0.238173   
C        C      0.744990000000     0.002340000000     0.408940000000     0.238173   
C        C      0.545870000000     0.150200000000     0.507620000000     0.238173   
C        C      0.857000000000     0.929560000000     0.348100000000     0.238173   
C        C      0.337730000000     0.102520000000     0.383820000000     0.238173   
C        C      0.613810000000     0.034720000000     0.400120000000     0.238173   
C        C      0.788140000000     0.041690000000     0.468230000000     0.238173   
C        C      0.699660000000     0.169940000000     0.580820000000     0.238173   
C        C      0.685750000000     0.112670000000     0.512350000000     0.238173   
C        C      0.509430000000     0.107910000000     0.452470000000     0.238173   
O        O      0.883000000000     0.281550000000     0.590590000000    -1.44903    
O        O      0.784400000000     0.604710000000     0.254450000000    -1.44903    
O        O      0.588380000000     0.606270000000     0.372170000000    -1.44903    
O        O      0.670070000000     0.386570000000     0.616110000000    -1.44903    
O        O      0.576080000000     0.737150000000     0.238670000000    -1.44903    
O        O      0.186450000000     0.436330000000     0.351050000000    -1.44903    
O        O      0.255140000000     0.218450000000     0.909410000000    -1.44903    
O        O      0.143560000000     0.895290000000     0.245550000000    -1.44903    
O        O      0.066820000000     0.893730000000     0.127830000000    -1.44903    
O        O      0.172750000000     0.113430000000     0.883890000000    -1.44903    
O        O      0.051900000000     0.762850000000     0.261330000000    -1.44903    
O        O      0.473830000000     0.063670000000     0.148950000000    -1.44903    
O        O      0.473590000000     0.409410000000     0.781550000000    -1.44903    
O        O      0.038850000000     0.745550000000     0.104710000000    -1.44903    
O        O      0.960550000000     0.627830000000     0.106270000000    -1.44903    
O        O      0.286180000000     0.383890000000     0.886570000000    -1.44903    
O        O      0.814750000000     0.761330000000     0.237150000000    -1.44903    
O        O      0.537500000000     0.648950000000     0.936330000000    -1.44903    
O        O      0.164550000000     0.090590000000     0.718450000000    -1.44903    
O        O      0.389110000000     0.754450000000     0.395290000000    -1.44903    
O        O      0.194650000000     0.872170000000     0.393730000000    -1.44903    
O        O      0.056640000000     0.116110000000     0.613430000000    -1.44903    
O        O      0.313230000000     0.738670000000     0.262850000000    -1.44903    
O        O      0.622780000000     0.851050000000     0.563670000000    -1.44903    
O        O      0.117000000000     0.718450000000     0.409410000000    -1.44903    
O        O      0.215600000000     0.395290000000     0.745550000000    -1.44903    
O        O      0.411620000000     0.393730000000     0.627830000000    -1.44903    
O        O      0.329930000000     0.613430000000     0.383890000000    -1.44903    
O        O      0.423920000000     0.262850000000     0.761330000000    -1.44903    
O        O      0.813550000000     0.563670000000     0.648950000000    -1.44903    
O        O      0.744860000000     0.781550000000     0.090590000000    -1.44903    
O        O      0.856440000000     0.104710000000     0.754450000000    -1.44903    
O        O      0.933180000000     0.106270000000     0.872170000000    -1.44903    
O        O      0.827250000000     0.886570000000     0.116110000000    -1.44903    
O        O      0.948100000000     0.237150000000     0.738670000000    -1.44903    
O        O      0.526170000000     0.936330000000     0.851050000000    -1.44903    
O        O      0.526410000000     0.590590000000     0.218450000000    -1.44903    
O        O      0.961150000000     0.254450000000     0.895290000000    -1.44903    
O        O      0.039450000000     0.372170000000     0.893730000000    -1.44903    
O        O      0.713820000000     0.616110000000     0.113430000000    -1.44903    
O        O      0.185250000000     0.238670000000     0.762850000000    -1.44903    
O        O      0.462500000000     0.351050000000     0.063670000000    -1.44903    
O        O      0.835450000000     0.909410000000     0.281550000000    -1.44903    
O        O      0.610890000000     0.245550000000     0.604710000000    -1.44903    
O        O      0.805350000000     0.127830000000     0.606270000000    -1.44903    
O        O      0.943360000000     0.883890000000     0.386570000000    -1.44903    
O        O      0.686770000000     0.261330000000     0.737150000000    -1.44903    
O        O      0.377220000000     0.148950000000     0.436330000000    -1.44903    


