data_CELZOK_original

_audit_creation_method RASPA-1.0
_audit_creation_date 2022-1-30
_audit_author_name 'Felipe Lopes de Oliveira <felipe.lopes.oliveira@ibm.com>'

_cell_length_a    10.181
_cell_length_b    21.4917
_cell_length_c    21.4917
_cell_angle_alpha 90
_cell_angle_beta  90
_cell_angle_gamma 90
_cell_volume      4702.55

_symmetry_cell_setting          triclinic
_symmetry_space_group_name_Hall 'P 1'
_symmetry_space_group_name_H-M  'P 1'
_symmetry_Int_Tables_number     1

_symmetry_equiv_pos_as_xyz 'x,y,z'

loop_
_atom_site_label
_atom_site_type_symbol
_atom_site_fract_x
_atom_site_fract_y
_atom_site_fract_z
_atom_site_charge
Al       Al     0.000000000000     0.316550000000     0.000000000000     7.67642    
Al       Al     0.000000000000     0.683450000000     0.500000000000     7.67642    
Al       Al     0.500000000000     0.183450000000     0.000000000000     7.67642    
Al       Al     0.750000000000     0.250000000000     0.933450000000     7.67642    
Al       Al     0.250000000000     0.250000000000     0.066550000000     7.67642    
Al       Al     0.250000000000     0.750000000000     0.433450000000     7.67642    
Al       Al     0.750000000000     0.750000000000     0.566550000000     7.67642    
Al       Al     0.500000000000     0.816550000000     0.500000000000     7.67642    
Al       Al     0.000000000000     0.683450000000     0.000000000000     7.67642    
Al       Al     0.000000000000     0.316550000000     0.500000000000     7.67642    
Al       Al     0.500000000000     0.816550000000     0.000000000000     7.67642    
Al       Al     0.250000000000     0.750000000000     0.066550000000     7.67642    
Al       Al     0.750000000000     0.750000000000     0.933450000000     7.67642    
Al       Al     0.750000000000     0.250000000000     0.566550000000     7.67642    
Al       Al     0.250000000000     0.250000000000     0.433450000000     7.67642    
Al       Al     0.500000000000     0.183450000000     0.500000000000     7.67642    
C        C      0.421310000000     0.444030000000     0.079360000000     0.243546   
C        C      0.421310000000     0.555970000000     0.420640000000     0.243546   
C        C      0.578690000000     0.555970000000     0.579360000000     0.243546   
C        C      0.921310000000     0.055970000000     0.920640000000     0.243546   
C        C      0.078690000000     0.055970000000     0.079360000000     0.243546   
C        C      0.328690000000     0.170640000000     0.805970000000     0.243546   
C        C      0.671310000000     0.170640000000     0.194030000000     0.243546   
C        C      0.828690000000     0.670640000000     0.305970000000     0.243546   
C        C      0.171310000000     0.670640000000     0.694030000000     0.243546   
C        C      0.171310000000     0.329360000000     0.805970000000     0.243546   
C        C      0.828690000000     0.329360000000     0.194030000000     0.243546   
C        C      0.671310000000     0.829360000000     0.305970000000     0.243546   
C        C      0.328690000000     0.829360000000     0.694030000000     0.243546   
C        C      0.578690000000     0.444030000000     0.920640000000     0.243546   
C        C      0.078690000000     0.944030000000     0.420640000000     0.243546   
C        C      0.921310000000     0.944030000000     0.579360000000     0.243546   
C        C      0.578690000000     0.555970000000     0.920640000000     0.243546   
C        C      0.578690000000     0.444030000000     0.579360000000     0.243546   
C        C      0.421310000000     0.444030000000     0.420640000000     0.243546   
C        C      0.078690000000     0.944030000000     0.079360000000     0.243546   
C        C      0.921310000000     0.944030000000     0.920640000000     0.243546   
C        C      0.671310000000     0.829360000000     0.194030000000     0.243546   
C        C      0.328690000000     0.829360000000     0.805970000000     0.243546   
C        C      0.171310000000     0.329360000000     0.694030000000     0.243546   
C        C      0.828690000000     0.329360000000     0.305970000000     0.243546   
C        C      0.828690000000     0.670640000000     0.194030000000     0.243546   
C        C      0.171310000000     0.670640000000     0.805970000000     0.243546   
C        C      0.328690000000     0.170640000000     0.694030000000     0.243546   
C        C      0.671310000000     0.170640000000     0.305970000000     0.243546   
C        C      0.421310000000     0.555970000000     0.079360000000     0.243546   
C        C      0.921310000000     0.055970000000     0.579360000000     0.243546   
C        C      0.078690000000     0.055970000000     0.420640000000     0.243546   
C        C      0.298030000000     0.445570000000     0.054940000000     0.243546   
C        C      0.298030000000     0.554430000000     0.445060000000     0.243546   
C        C      0.701970000000     0.554430000000     0.554940000000     0.243546   
C        C      0.798030000000     0.054430000000     0.945060000000     0.243546   
C        C      0.201970000000     0.054430000000     0.054940000000     0.243546   
C        C      0.451970000000     0.195060000000     0.804430000000     0.243546   
C        C      0.548030000000     0.195060000000     0.195570000000     0.243546   
C        C      0.951970000000     0.695060000000     0.304430000000     0.243546   
C        C      0.048030000000     0.695060000000     0.695570000000     0.243546   
C        C      0.048030000000     0.304940000000     0.804430000000     0.243546   
C        C      0.951970000000     0.304940000000     0.195570000000     0.243546   
C        C      0.548030000000     0.804940000000     0.304430000000     0.243546   
C        C      0.451970000000     0.804940000000     0.695570000000     0.243546   
C        C      0.701970000000     0.445570000000     0.945060000000     0.243546   
C        C      0.201970000000     0.945570000000     0.445060000000     0.243546   
C        C      0.798030000000     0.945570000000     0.554940000000     0.243546   
C        C      0.701970000000     0.554430000000     0.945060000000     0.243546   
C        C      0.701970000000     0.445570000000     0.554940000000     0.243546   
C        C      0.298030000000     0.445570000000     0.445060000000     0.243546   
C        C      0.201970000000     0.945570000000     0.054940000000     0.243546   
C        C      0.798030000000     0.945570000000     0.945060000000     0.243546   
C        C      0.548030000000     0.804940000000     0.195570000000     0.243546   
C        C      0.451970000000     0.804940000000     0.804430000000     0.243546   
C        C      0.048030000000     0.304940000000     0.695570000000     0.243546   
C        C      0.951970000000     0.304940000000     0.304430000000     0.243546   
C        C      0.951970000000     0.695060000000     0.195570000000     0.243546   
C        C      0.048030000000     0.695060000000     0.804430000000     0.243546   
C        C      0.451970000000     0.195060000000     0.695570000000     0.243546   
C        C      0.548030000000     0.195060000000     0.304430000000     0.243546   
C        C      0.298030000000     0.554430000000     0.054940000000     0.243546   
C        C      0.798030000000     0.054430000000     0.554940000000     0.243546   
C        C      0.201970000000     0.054430000000     0.445060000000     0.243546   
C        C      0.227200000000     0.386960000000     0.045960000000     0.243546   
C        C      0.227200000000     0.613040000000     0.454040000000     0.243546   
C        C      0.772800000000     0.613040000000     0.545960000000     0.243546   
C        C      0.727200000000     0.113040000000     0.954040000000     0.243546   
C        C      0.272800000000     0.113040000000     0.045960000000     0.243546   
C        C      0.522800000000     0.204040000000     0.863040000000     0.243546   
C        C      0.477200000000     0.204040000000     0.136960000000     0.243546   
C        C      0.022800000000     0.704040000000     0.363040000000     0.243546   
C        C      0.977200000000     0.704040000000     0.636960000000     0.243546   
C        C      0.977200000000     0.295960000000     0.863040000000     0.243546   
C        C      0.022800000000     0.295960000000     0.136960000000     0.243546   
C        C      0.477200000000     0.795960000000     0.363040000000     0.243546   
C        C      0.522800000000     0.795960000000     0.636960000000     0.243546   
C        C      0.772800000000     0.386960000000     0.954040000000     0.243546   
C        C      0.272800000000     0.886960000000     0.454040000000     0.243546   
C        C      0.727200000000     0.886960000000     0.545960000000     0.243546   
C        C      0.772800000000     0.613040000000     0.954040000000     0.243546   
C        C      0.772800000000     0.386960000000     0.545960000000     0.243546   
C        C      0.227200000000     0.386960000000     0.454040000000     0.243546   
C        C      0.272800000000     0.886960000000     0.045960000000     0.243546   
C        C      0.727200000000     0.886960000000     0.954040000000     0.243546   
C        C      0.477200000000     0.795960000000     0.136960000000     0.243546   
C        C      0.522800000000     0.795960000000     0.863040000000     0.243546   
C        C      0.977200000000     0.295960000000     0.636960000000     0.243546   
C        C      0.022800000000     0.295960000000     0.363040000000     0.243546   
C        C      0.022800000000     0.704040000000     0.136960000000     0.243546   
C        C      0.977200000000     0.704040000000     0.863040000000     0.243546   
C        C      0.522800000000     0.204040000000     0.636960000000     0.243546   
C        C      0.477200000000     0.204040000000     0.363040000000     0.243546   
C        C      0.227200000000     0.613040000000     0.045960000000     0.243546   
C        C      0.727200000000     0.113040000000     0.545960000000     0.243546   
C        C      0.272800000000     0.113040000000     0.454040000000     0.243546   
C        C      0.631430000000     0.500000000000     0.114740000000     0.243546   
C        C      0.631430000000     0.500000000000     0.385260000000     0.243546   
C        C      0.368570000000     0.500000000000     0.614740000000     0.243546   
C        C      0.131430000000     0.000000000000     0.885260000000     0.243546   
C        C      0.868570000000     0.000000000000     0.114740000000     0.243546   
C        C      0.118570000000     0.135260000000     0.750000000000     0.243546   
C        C      0.881430000000     0.135260000000     0.250000000000     0.243546   
C        C      0.618570000000     0.635260000000     0.250000000000     0.243546   
C        C      0.381430000000     0.635260000000     0.750000000000     0.243546   
C        C      0.381430000000     0.364740000000     0.750000000000     0.243546   
C        C      0.618570000000     0.364740000000     0.250000000000     0.243546   
C        C      0.881430000000     0.864740000000     0.250000000000     0.243546   
C        C      0.118570000000     0.864740000000     0.750000000000     0.243546   
C        C      0.368570000000     0.500000000000     0.885260000000     0.243546   
C        C      0.868570000000     0.000000000000     0.385260000000     0.243546   
C        C      0.131430000000     0.000000000000     0.614740000000     0.243546   
C        C      0.234700000000     0.500000000000     0.036580000000     0.243546   
C        C      0.234700000000     0.500000000000     0.463420000000     0.243546   
C        C      0.765300000000     0.500000000000     0.536580000000     0.243546   
C        C      0.734700000000     0.000000000000     0.963420000000     0.243546   
C        C      0.265300000000     0.000000000000     0.036580000000     0.243546   
C        C      0.515300000000     0.213420000000     0.750000000000     0.243546   
C        C      0.484700000000     0.213420000000     0.250000000000     0.243546   
C        C      0.015300000000     0.713420000000     0.250000000000     0.243546   
C        C      0.984700000000     0.713420000000     0.750000000000     0.243546   
C        C      0.984700000000     0.286580000000     0.750000000000     0.243546   
C        C      0.015300000000     0.286580000000     0.250000000000     0.243546   
C        C      0.484700000000     0.786580000000     0.250000000000     0.243546   
C        C      0.515300000000     0.786580000000     0.750000000000     0.243546   
C        C      0.765300000000     0.500000000000     0.963420000000     0.243546   
C        C      0.265300000000     0.000000000000     0.463420000000     0.243546   
C        C      0.734700000000     0.000000000000     0.536580000000     0.243546   
C        C      0.493060000000     0.500000000000     0.087340000000     0.243546   
C        C      0.493060000000     0.500000000000     0.412660000000     0.243546   
C        C      0.506940000000     0.500000000000     0.587340000000     0.243546   
C        C      0.993060000000     0.000000000000     0.912660000000     0.243546   
C        C      0.006940000000     0.000000000000     0.087340000000     0.243546   
C        C      0.256940000000     0.162660000000     0.750000000000     0.243546   
C        C      0.743060000000     0.162660000000     0.250000000000     0.243546   
C        C      0.756940000000     0.662660000000     0.250000000000     0.243546   
C        C      0.243060000000     0.662660000000     0.750000000000     0.243546   
C        C      0.243060000000     0.337340000000     0.750000000000     0.243546   
C        C      0.756940000000     0.337340000000     0.250000000000     0.243546   
C        C      0.743060000000     0.837340000000     0.250000000000     0.243546   
C        C      0.256940000000     0.837340000000     0.750000000000     0.243546   
C        C      0.506940000000     0.500000000000     0.912660000000     0.243546   
C        C      0.006940000000     0.000000000000     0.412660000000     0.243546   
C        C      0.993060000000     0.000000000000     0.587340000000     0.243546   
O        O      0.125000000000     0.259960000000     0.009960000000    -1.97367    
O        O      0.125000000000     0.740040000000     0.490040000000    -1.97367    
O        O      0.875000000000     0.740040000000     0.509960000000    -1.97367    
O        O      0.625000000000     0.240040000000     0.990040000000    -1.97367    
O        O      0.375000000000     0.240040000000     0.009960000000    -1.97367    
O        O      0.875000000000     0.259960000000     0.990040000000    -1.97367    
O        O      0.375000000000     0.759960000000     0.490040000000    -1.97367    
O        O      0.625000000000     0.759960000000     0.509960000000    -1.97367    
O        O      0.875000000000     0.740040000000     0.990040000000    -1.97367    
O        O      0.875000000000     0.259960000000     0.509960000000    -1.97367    
O        O      0.125000000000     0.259960000000     0.490040000000    -1.97367    
O        O      0.375000000000     0.759960000000     0.009960000000    -1.97367    
O        O      0.625000000000     0.759960000000     0.990040000000    -1.97367    
O        O      0.125000000000     0.740040000000     0.009960000000    -1.97367    
O        O      0.625000000000     0.240040000000     0.509960000000    -1.97367    
O        O      0.375000000000     0.240040000000     0.490040000000    -1.97367    
O        O      0.131850000000     0.381460000000     0.011310000000    -1.97367    
O        O      0.131850000000     0.618540000000     0.488690000000    -1.97367    
O        O      0.868150000000     0.618540000000     0.511310000000    -1.97367    
O        O      0.631850000000     0.118540000000     0.988690000000    -1.97367    
O        O      0.368150000000     0.118540000000     0.011310000000    -1.97367    
O        O      0.618150000000     0.238690000000     0.868540000000    -1.97367    
O        O      0.381850000000     0.238690000000     0.131460000000    -1.97367    
O        O      0.118150000000     0.738690000000     0.368540000000    -1.97367    
O        O      0.881850000000     0.738690000000     0.631460000000    -1.97367    
O        O      0.881850000000     0.261310000000     0.868540000000    -1.97367    
O        O      0.118150000000     0.261310000000     0.131460000000    -1.97367    
O        O      0.381850000000     0.761310000000     0.368540000000    -1.97367    
O        O      0.618150000000     0.761310000000     0.631460000000    -1.97367    
O        O      0.868150000000     0.381460000000     0.988690000000    -1.97367    
O        O      0.368150000000     0.881460000000     0.488690000000    -1.97367    
O        O      0.631850000000     0.881460000000     0.511310000000    -1.97367    
O        O      0.868150000000     0.618540000000     0.988690000000    -1.97367    
O        O      0.868150000000     0.381460000000     0.511310000000    -1.97367    
O        O      0.131850000000     0.381460000000     0.488690000000    -1.97367    
O        O      0.368150000000     0.881460000000     0.011310000000    -1.97367    
O        O      0.631850000000     0.881460000000     0.988690000000    -1.97367    
O        O      0.381850000000     0.761310000000     0.131460000000    -1.97367    
O        O      0.618150000000     0.761310000000     0.868540000000    -1.97367    
O        O      0.881850000000     0.261310000000     0.631460000000    -1.97367    
O        O      0.118150000000     0.261310000000     0.368540000000    -1.97367    
O        O      0.118150000000     0.738690000000     0.131460000000    -1.97367    
O        O      0.881850000000     0.738690000000     0.868540000000    -1.97367    
O        O      0.618150000000     0.238690000000     0.631460000000    -1.97367    
O        O      0.381850000000     0.238690000000     0.368540000000    -1.97367    
O        O      0.131850000000     0.618540000000     0.011310000000    -1.97367    
O        O      0.631850000000     0.118540000000     0.511310000000    -1.97367    
O        O      0.368150000000     0.118540000000     0.488690000000    -1.97367    
O        O      0.284200000000     0.336630000000     0.068960000000    -1.97367    
O        O      0.284200000000     0.663370000000     0.431040000000    -1.97367    
O        O      0.715800000000     0.663370000000     0.568960000000    -1.97367    
O        O      0.784200000000     0.163370000000     0.931040000000    -1.97367    
O        O      0.215800000000     0.163370000000     0.068960000000    -1.97367    
O        O      0.465800000000     0.181040000000     0.913370000000    -1.97367    
O        O      0.534200000000     0.181040000000     0.086630000000    -1.97367    
O        O      0.965800000000     0.681040000000     0.413370000000    -1.97367    
O        O      0.034200000000     0.681040000000     0.586630000000    -1.97367    
O        O      0.034200000000     0.318960000000     0.913370000000    -1.97367    
O        O      0.965800000000     0.318960000000     0.086630000000    -1.97367    
O        O      0.534200000000     0.818960000000     0.413370000000    -1.97367    
O        O      0.465800000000     0.818960000000     0.586630000000    -1.97367    
O        O      0.715800000000     0.336630000000     0.931040000000    -1.97367    
O        O      0.215800000000     0.836630000000     0.431040000000    -1.97367    
O        O      0.784200000000     0.836630000000     0.568960000000    -1.97367    
O        O      0.715800000000     0.663370000000     0.931040000000    -1.97367    
O        O      0.715800000000     0.336630000000     0.568960000000    -1.97367    
O        O      0.284200000000     0.336630000000     0.431040000000    -1.97367    
O        O      0.215800000000     0.836630000000     0.068960000000    -1.97367    
O        O      0.784200000000     0.836630000000     0.931040000000    -1.97367    
O        O      0.534200000000     0.818960000000     0.086630000000    -1.97367    
O        O      0.465800000000     0.818960000000     0.913370000000    -1.97367    
O        O      0.034200000000     0.318960000000     0.586630000000    -1.97367    
O        O      0.965800000000     0.318960000000     0.413370000000    -1.97367    
O        O      0.965800000000     0.681040000000     0.086630000000    -1.97367    
O        O      0.034200000000     0.681040000000     0.913370000000    -1.97367    
O        O      0.465800000000     0.181040000000     0.586630000000    -1.97367    
O        O      0.534200000000     0.181040000000     0.413370000000    -1.97367    
O        O      0.284200000000     0.663370000000     0.068960000000    -1.97367    
O        O      0.784200000000     0.163370000000     0.568960000000    -1.97367    
O        O      0.215800000000     0.163370000000     0.431040000000    -1.97367    


