data_COF-5_original

_audit_creation_method RASPA-1.0
_audit_creation_date 2022-1-29
_audit_author_name 'Felipe Lopes de Oliveira <felipe.lopes.oliveira@ibm.com>'

_cell_length_a    3.404
_cell_length_b    30.0198
_cell_length_c    30.0198
_cell_angle_alpha 120
_cell_angle_beta  90
_cell_angle_gamma 90
_cell_volume      2656.66

_symmetry_cell_setting          triclinic
_symmetry_space_group_name_Hall 'P 1'
_symmetry_space_group_name_H-M  'P 1'
_symmetry_Int_Tables_number     1

_symmetry_equiv_pos_as_xyz 'x,y,z'

loop_
_atom_site_label
_atom_site_type_symbol
_atom_site_fract_x
_atom_site_fract_y
_atom_site_fract_z
_atom_site_charge
B        B      0.500000000000     0.113570000000     0.556790000000     1.1315     
B        B      0.500000000000     0.886430000000     0.443210000000     1.1315     
B        B      0.500000000000     0.443210000000     0.556780000000     1.1315     
B        B      0.500000000000     0.556790000000     0.443220000000     1.1315     
B        B      0.500000000000     0.443220000000     0.886430000000     1.1315     
B        B      0.500000000000     0.556780000000     0.113570000000     1.1315     
H        H      0.500000000000     0.452520000000     0.405080000000     0.0353299  
H        H      0.500000000000     0.547480000000     0.594920000000     0.0353299  
H        H      0.500000000000     0.594920000000     0.047440000000     0.0353299  
H        H      0.500000000000     0.405080000000     0.952560000000     0.0353299  
H        H      0.500000000000     0.952560000000     0.547480000000     0.0353299  
H        H      0.500000000000     0.047440000000     0.452520000000     0.0353299  
H        H      0.500000000000     0.405080000000     0.452520000000     0.0353299  
H        H      0.500000000000     0.594920000000     0.547480000000     0.0353299  
H        H      0.500000000000     0.047440000000     0.594920000000     0.0353299  
H        H      0.500000000000     0.952560000000     0.405080000000     0.0353299  
H        H      0.500000000000     0.547480000000     0.952560000000     0.0353299  
H        H      0.500000000000     0.452520000000     0.047440000000     0.0353299  
H        H      0.500000000000     0.536590000000     0.298280000000     0.0353299  
H        H      0.500000000000     0.463410000000     0.701720000000     0.0353299  
H        H      0.500000000000     0.701720000000     0.238310000000     0.0353299  
H        H      0.500000000000     0.298280000000     0.761690000000     0.0353299  
H        H      0.500000000000     0.761690000000     0.463410000000     0.0353299  
H        H      0.500000000000     0.238310000000     0.536590000000     0.0353299  
H        H      0.500000000000     0.298280000000     0.536590000000     0.0353299  
H        H      0.500000000000     0.701720000000     0.463410000000     0.0353299  
H        H      0.500000000000     0.238310000000     0.701720000000     0.0353299  
H        H      0.500000000000     0.761690000000     0.298280000000     0.0353299  
H        H      0.500000000000     0.463410000000     0.761690000000     0.0353299  
H        H      0.500000000000     0.536590000000     0.238310000000     0.0353299  
C        C      0.500000000000     0.946170000000     0.473080000000    -0.0286649  
C        C      0.500000000000     0.053830000000     0.526920000000    -0.0286649  
C        C      0.500000000000     0.526920000000     0.473090000000    -0.0286649  
C        C      0.500000000000     0.473080000000     0.526910000000    -0.0286649  
C        C      0.500000000000     0.526910000000     0.053830000000    -0.0286649  
C        C      0.500000000000     0.473090000000     0.946170000000    -0.0286649  
C        C      0.500000000000     0.473120000000     0.026880000000    -0.0286649  
C        C      0.500000000000     0.526880000000     0.973120000000    -0.0286649  
C        C      0.500000000000     0.973120000000     0.446240000000    -0.0286649  
C        C      0.500000000000     0.026880000000     0.553760000000    -0.0286649  
C        C      0.500000000000     0.553760000000     0.526880000000    -0.0286649  
C        C      0.500000000000     0.446240000000     0.473120000000    -0.0286649  
C        C      0.500000000000     0.026880000000     0.473120000000    -0.0286649  
C        C      0.500000000000     0.973120000000     0.526880000000    -0.0286649  
C        C      0.500000000000     0.446240000000     0.973120000000    -0.0286649  
C        C      0.500000000000     0.553760000000     0.026880000000    -0.0286649  
C        C      0.500000000000     0.526880000000     0.553760000000    -0.0286649  
C        C      0.500000000000     0.473120000000     0.446240000000    -0.0286649  
C        C      0.500000000000     0.619500000000     0.193280000000    -0.0286649  
C        C      0.500000000000     0.380500000000     0.806720000000    -0.0286649  
C        C      0.500000000000     0.806720000000     0.426220000000    -0.0286649  
C        C      0.500000000000     0.193280000000     0.573780000000    -0.0286649  
C        C      0.500000000000     0.573780000000     0.380500000000    -0.0286649  
C        C      0.500000000000     0.426220000000     0.619500000000    -0.0286649  
C        C      0.500000000000     0.193280000000     0.619500000000    -0.0286649  
C        C      0.500000000000     0.806720000000     0.380500000000    -0.0286649  
C        C      0.500000000000     0.426220000000     0.806720000000    -0.0286649  
C        C      0.500000000000     0.573780000000     0.193280000000    -0.0286649  
C        C      0.500000000000     0.380500000000     0.573780000000    -0.0286649  
C        C      0.500000000000     0.619500000000     0.426220000000    -0.0286649  
C        C      0.500000000000     0.666667000000     0.238960000000    -0.0286649  
C        C      0.500000000000     0.333333000000     0.761040000000    -0.0286649  
C        C      0.500000000000     0.761040000000     0.427707000000    -0.0286649  
C        C      0.500000000000     0.238960000000     0.572293000000    -0.0286649  
C        C      0.500000000000     0.572293000000     0.333333000000    -0.0286649  
C        C      0.500000000000     0.427707000000     0.666667000000    -0.0286649  
C        C      0.500000000000     0.238960000000     0.666667000000    -0.0286649  
C        C      0.500000000000     0.761040000000     0.333333000000    -0.0286649  
C        C      0.500000000000     0.427707000000     0.761040000000    -0.0286649  
C        C      0.500000000000     0.572293000000     0.238960000000    -0.0286649  
C        C      0.500000000000     0.333333000000     0.572293000000    -0.0286649  
C        C      0.500000000000     0.666667000000     0.427707000000    -0.0286649  
C        C      0.500000000000     0.666667000000     0.286210000000    -0.0286649  
C        C      0.500000000000     0.333333000000     0.713790000000    -0.0286649  
C        C      0.500000000000     0.713790000000     0.380457000000    -0.0286649  
C        C      0.500000000000     0.286210000000     0.619543000000    -0.0286649  
C        C      0.500000000000     0.619543000000     0.333333000000    -0.0286649  
C        C      0.500000000000     0.380457000000     0.666667000000    -0.0286649  
C        C      0.500000000000     0.286210000000     0.666667000000    -0.0286649  
C        C      0.500000000000     0.713790000000     0.333333000000    -0.0286649  
C        C      0.500000000000     0.380457000000     0.713790000000    -0.0286649  
C        C      0.500000000000     0.619543000000     0.286210000000    -0.0286649  
C        C      0.500000000000     0.333333000000     0.619543000000    -0.0286649  
C        C      0.500000000000     0.666667000000     0.380457000000    -0.0286649  
O        O      0.500000000000     0.613050000000     0.144290000000    -0.507418   
O        O      0.500000000000     0.386950000000     0.855710000000    -0.507418   
O        O      0.500000000000     0.855710000000     0.468760000000    -0.507418   
O        O      0.500000000000     0.144290000000     0.531240000000    -0.507418   
O        O      0.500000000000     0.531240000000     0.386950000000    -0.507418   
O        O      0.500000000000     0.468760000000     0.613050000000    -0.507418   
O        O      0.500000000000     0.144290000000     0.613050000000    -0.507418   
O        O      0.500000000000     0.855710000000     0.386950000000    -0.507418   
O        O      0.500000000000     0.468760000000     0.855710000000    -0.507418   
O        O      0.500000000000     0.531240000000     0.144290000000    -0.507418   
O        O      0.500000000000     0.386950000000     0.531240000000    -0.507418   
O        O      0.500000000000     0.613050000000     0.468760000000    -0.507418   


