data_COF-300_original

_audit_creation_method RASPA-1.0
_audit_creation_date 2022-1-28
_audit_author_name 'Felipe Lopes de Oliveira <felipe.lopes.oliveira@ibm.com>'

_cell_length_a    8.879
_cell_length_b    20.3783
_cell_length_c    20.3783
_cell_angle_alpha 87.2797
_cell_angle_beta  77.4169
_cell_angle_gamma 77.4169
_cell_volume      3512.21

_symmetry_cell_setting          triclinic
_symmetry_space_group_name_Hall 'P 1'
_symmetry_space_group_name_H-M  'P 1'
_symmetry_Int_Tables_number     1

_symmetry_equiv_pos_as_xyz 'x,y,z'

loop_
_atom_site_label
_atom_site_type_symbol
_atom_site_fract_x
_atom_site_fract_y
_atom_site_fract_z
_atom_site_charge
H        H      0.385900000000     0.121100000000     0.015300000000     0.0417829  
H        H      0.614100000000     0.878900000000     0.984700000000     0.0417829  
H        H      0.522300000000     0.378900000000     0.484700000000     0.0417829  
H        H      0.477700000000     0.621100000000     0.515300000000     0.0417829  
H        H      0.007000000000     0.015300000000     0.378900000000     0.0417829  
H        H      0.993000000000     0.984700000000     0.621100000000     0.0417829  
H        H      0.401200000000     0.484700000000     0.121100000000     0.0417829  
H        H      0.598800000000     0.515300000000     0.878900000000     0.0417829  
H        H      0.587400000000     0.148000000000     0.939400000000     0.0417829  
H        H      0.412600000000     0.852000000000     0.060600000000     0.0417829  
H        H      0.674800000000     0.352000000000     0.560600000000     0.0417829  
H        H      0.325200000000     0.648000000000     0.439400000000     0.0417829  
H        H      0.235400000000     0.939400000000     0.352000000000     0.0417829  
H        H      0.764600000000     0.060600000000     0.648000000000     0.0417829  
H        H      0.526800000000     0.560600000000     0.148000000000     0.0417829  
H        H      0.473200000000     0.439400000000     0.852000000000     0.0417829  
H        H      0.736600000000     0.960700000000     0.924500000000     0.0417829  
H        H      0.263400000000     0.039300000000     0.075500000000     0.0417829  
H        H      0.621800000000     0.539300000000     0.575500000000     0.0417829  
H        H      0.378200000000     0.460700000000     0.424500000000     0.0417829  
H        H      0.197300000000     0.924500000000     0.539300000000     0.0417829  
H        H      0.802700000000     0.075500000000     0.460700000000     0.0417829  
H        H      0.661100000000     0.575500000000     0.960700000000     0.0417829  
H        H      0.338900000000     0.424500000000     0.039300000000     0.0417829  
H        H      0.985300000000     0.044500000000     0.785700000000     0.0417829  
H        H      0.014700000000     0.955500000000     0.214300000000     0.0417829  
H        H      0.815500000000     0.455500000000     0.714300000000     0.0417829  
H        H      0.184500000000     0.544500000000     0.285700000000     0.0417829  
H        H      0.529800000000     0.785700000000     0.455500000000     0.0417829  
H        H      0.470200000000     0.214300000000     0.544500000000     0.0417829  
H        H      0.771000000000     0.714300000000     0.044500000000     0.0417829  
H        H      0.229000000000     0.285700000000     0.955500000000     0.0417829  
H        H      0.135900000000     0.114500000000     0.724900000000     0.0417829  
H        H      0.864100000000     0.885500000000     0.275100000000     0.0417829  
H        H      0.975300000000     0.385500000000     0.775100000000     0.0417829  
H        H      0.024700000000     0.614500000000     0.224900000000     0.0417829  
H        H      0.750400000000     0.724900000000     0.385500000000     0.0417829  
H        H      0.249600000000     0.275100000000     0.614500000000     0.0417829  
H        H      0.860800000000     0.775100000000     0.114500000000     0.0417829  
H        H      0.139200000000     0.224900000000     0.885500000000     0.0417829  
H        H      0.892600000000     0.280400000000     0.855200000000     0.0417829  
H        H      0.107400000000     0.719600000000     0.144800000000     0.0417829  
H        H      0.028200000000     0.219600000000     0.644800000000     0.0417829  
H        H      0.971800000000     0.780400000000     0.355200000000     0.0417829  
H        H      0.673000000000     0.855200000000     0.219600000000     0.0417829  
H        H      0.327000000000     0.144800000000     0.780400000000     0.0417829  
H        H      0.747800000000     0.644800000000     0.280400000000     0.0417829  
H        H      0.252200000000     0.355200000000     0.719600000000     0.0417829  
H        H      0.741700000000     0.209900000000     0.915300000000     0.0417829  
H        H      0.258300000000     0.790100000000     0.084700000000     0.0417829  
H        H      0.866900000000     0.290100000000     0.584700000000     0.0417829  
H        H      0.133100000000     0.709900000000     0.415300000000     0.0417829  
H        H      0.451600000000     0.915300000000     0.290100000000     0.0417829  
H        H      0.548400000000     0.084700000000     0.709900000000     0.0417829  
H        H      0.657000000000     0.584700000000     0.209900000000     0.0417829  
H        H      0.343000000000     0.415300000000     0.790100000000     0.0417829  
C        C      0.875000000000     0.750000000000     0.250000000000    -0.0152362  
C        C      0.125000000000     0.250000000000     0.750000000000    -0.0152362  
C        C      0.436900000000     0.068300000000     0.008100000000    -0.0152362  
C        C      0.563100000000     0.931700000000     0.991900000000    -0.0152362  
C        C      0.513300000000     0.431700000000     0.491900000000    -0.0152362  
C        C      0.486700000000     0.568300000000     0.508100000000    -0.0152362  
C        C      0.005200000000     0.008100000000     0.431700000000    -0.0152362  
C        C      0.994800000000     0.991900000000     0.568300000000    -0.0152362  
C        C      0.445000000000     0.491900000000     0.068300000000    -0.0152362  
C        C      0.555000000000     0.508100000000     0.931700000000    -0.0152362  
C        C      0.570900000000     0.047600000000     0.965000000000    -0.0152362  
C        C      0.429100000000     0.952400000000     0.035000000000    -0.0152362  
C        C      0.583500000000     0.452400000000     0.535000000000    -0.0152362  
C        C      0.416500000000     0.547600000000     0.465000000000    -0.0152362  
C        C      0.118500000000     0.965000000000     0.452400000000    -0.0152362  
C        C      0.881500000000     0.035000000000     0.547600000000    -0.0152362  
C        C      0.535900000000     0.535000000000     0.047600000000    -0.0152362  
C        C      0.464100000000     0.465000000000     0.952400000000    -0.0152362  
C        C      0.639500000000     0.095600000000     0.931600000000    -0.0152362  
C        C      0.360500000000     0.904400000000     0.068400000000    -0.0152362  
C        C      0.666700000000     0.404400000000     0.568400000000    -0.0152362  
C        C      0.333300000000     0.595600000000     0.431600000000    -0.0152362  
C        C      0.235100000000     0.931600000000     0.404400000000    -0.0152362  
C        C      0.764900000000     0.068400000000     0.595600000000    -0.0152362  
C        C      0.571100000000     0.568400000000     0.095600000000    -0.0152362  
C        C      0.428900000000     0.431600000000     0.904400000000    -0.0152362  
C        C      0.633300000000     0.978700000000     0.957300000000    -0.0152362  
C        C      0.366700000000     0.021300000000     0.042700000000    -0.0152362  
C        C      0.569300000000     0.521300000000     0.542700000000    -0.0152362  
C        C      0.430700000000     0.478700000000     0.457300000000    -0.0152362  
C        C      0.112000000000     0.957300000000     0.521300000000    -0.0152362  
C        C      0.888000000000     0.042700000000     0.478700000000    -0.0152362  
C        C      0.590600000000     0.542700000000     0.978700000000    -0.0152362  
C        C      0.409400000000     0.457300000000     0.021300000000    -0.0152362  
C        C      0.852700000000     0.121400000000     0.854800000000    -0.0152362  
C        C      0.147300000000     0.878600000000     0.145200000000    -0.0152362  
C        C      0.828900000000     0.378600000000     0.645200000000    -0.0152362  
C        C      0.171100000000     0.621400000000     0.354800000000    -0.0152362  
C        C      0.474100000000     0.854800000000     0.378600000000    -0.0152362  
C        C      0.525900000000     0.145200000000     0.621400000000    -0.0152362  
C        C      0.707500000000     0.645200000000     0.121400000000    -0.0152362  
C        C      0.292500000000     0.354800000000     0.878600000000    -0.0152362  
C        C      0.966100000000     0.095800000000     0.801600000000    -0.0152362  
C        C      0.033900000000     0.904200000000     0.198400000000    -0.0152362  
C        C      0.863500000000     0.404200000000     0.698400000000    -0.0152362  
C        C      0.136500000000     0.595800000000     0.301600000000    -0.0152362  
C        C      0.561900000000     0.801600000000     0.404200000000    -0.0152362  
C        C      0.438100000000     0.198400000000     0.595800000000    -0.0152362  
C        C      0.767700000000     0.698400000000     0.095800000000    -0.0152362  
C        C      0.232300000000     0.301600000000     0.904200000000    -0.0152362  
C        C      0.054300000000     0.136000000000     0.767600000000    -0.0152362  
C        C      0.945700000000     0.864000000000     0.232400000000    -0.0152362  
C        C      0.957900000000     0.364000000000     0.732400000000    -0.0152362  
C        C      0.042100000000     0.636000000000     0.267600000000    -0.0152362  
C        C      0.690300000000     0.767600000000     0.364000000000    -0.0152362  
C        C      0.309700000000     0.232400000000     0.636000000000    -0.0152362  
C        C      0.821900000000     0.732400000000     0.136000000000    -0.0152362  
C        C      0.178100000000     0.267600000000     0.864000000000    -0.0152362  
C        C      0.034300000000     0.202600000000     0.788000000000    -0.0152362  
C        C      0.965700000000     0.797400000000     0.212000000000    -0.0152362  
C        C      0.024900000000     0.297400000000     0.712000000000    -0.0152362  
C        C      0.975100000000     0.702600000000     0.288000000000    -0.0152362  
C        C      0.736900000000     0.788000000000     0.297400000000    -0.0152362  
C        C      0.263100000000     0.212000000000     0.702600000000    -0.0152362  
C        C      0.822300000000     0.712000000000     0.202600000000    -0.0152362  
C        C      0.177700000000     0.288000000000     0.797400000000    -0.0152362  
C        C      0.915900000000     0.228600000000     0.840000000000    -0.0152362  
C        C      0.084100000000     0.771400000000     0.160000000000    -0.0152362  
C        C      0.984500000000     0.271400000000     0.660000000000    -0.0152362  
C        C      0.015500000000     0.728600000000     0.340000000000    -0.0152362  
C        C      0.644500000000     0.840000000000     0.271400000000    -0.0152362  
C        C      0.355500000000     0.160000000000     0.728600000000    -0.0152362  
C        C      0.755900000000     0.660000000000     0.228600000000    -0.0152362  
C        C      0.244100000000     0.340000000000     0.771400000000    -0.0152362  
C        C      0.827700000000     0.188500000000     0.873700000000    -0.0152362  
C        C      0.172300000000     0.811500000000     0.126300000000    -0.0152362  
C        C      0.889900000000     0.311500000000     0.626300000000    -0.0152362  
C        C      0.110100000000     0.688500000000     0.373700000000    -0.0152362  
C        C      0.516200000000     0.873700000000     0.311500000000    -0.0152362  
C        C      0.483800000000     0.126300000000     0.688500000000    -0.0152362  
C        C      0.701400000000     0.626300000000     0.188500000000    -0.0152362  
C        C      0.298600000000     0.373700000000     0.811500000000    -0.0152362  
N        N      0.768300000000     0.077300000000     0.889300000000    -0.136309   
N        N      0.231700000000     0.922700000000     0.110700000000    -0.136309   
N        N      0.734900000000     0.422700000000     0.610700000000    -0.136309   
N        N      0.265100000000     0.577300000000     0.389300000000    -0.136309   
N        N      0.345600000000     0.889300000000     0.422700000000    -0.136309   
N        N      0.654400000000     0.110700000000     0.577300000000    -0.136309   
N        N      0.657600000000     0.610700000000     0.077300000000    -0.136309   
N        N      0.342400000000     0.389300000000     0.922700000000    -0.136309   


