data_CUTKOS_original

_audit_creation_method RASPA-1.0
_audit_creation_date 2022-1-28
_audit_author_name 'Felipe Lopes de Oliveira <felipe.lopes.oliveira@ibm.com>'

_cell_length_a    10.609
_cell_length_b    12.321
_cell_length_c    25.816
_cell_angle_alpha 91.739
_cell_angle_beta  90
_cell_angle_gamma 90
_cell_volume      3372.95

_symmetry_cell_setting          triclinic
_symmetry_space_group_name_Hall 'P 1'
_symmetry_space_group_name_H-M  'P 1'
_symmetry_Int_Tables_number     1

_symmetry_equiv_pos_as_xyz 'x,y,z'

loop_
_atom_site_label
_atom_site_type_symbol
_atom_site_fract_x
_atom_site_fract_y
_atom_site_fract_z
_atom_site_charge
Zn       Zn     0.764960000000     0.580350000000     0.558260000000     0.482949   
Zn       Zn     0.764960000000     0.919650000000     0.941740000000     0.482949   
Zn       Zn     0.235040000000     0.419650000000     0.441740000000     0.482949   
Zn       Zn     0.235040000000     0.080350000000     0.058260000000     0.482949   
Zn       Zn     0.500000000000     0.500000000000     0.500000000000     0.482949   
Zn       Zn     0.500000000000     0.000000000000     0.000000000000     0.482949   
H        H      0.605300000000     0.990200000000     0.167100000000     0.0606523  
H        H      0.374000000000     0.962800000000     0.208800000000     0.0606523  
H        H      0.357800000000     0.867800000000     0.288500000000     0.0606523  
H        H      0.444900000000     0.788100000000     0.358900000000     0.0606523  
H        H      0.788100000000     0.874400000000     0.310700000000     0.0606523  
H        H      0.698600000000     0.949800000000     0.238700000000     0.0606523  
H        H      0.548800000000     0.701300000000     0.422500000000     0.0606523  
H        H      0.775300000000     0.773700000000     0.386800000000     0.0606523  
H        H      0.715400000000     0.190100000000     0.508200000000     0.0606523  
H        H      0.954500000000     0.265700000000     0.527200000000     0.0606523  
H        H      0.123800000000     0.143400000000     0.528800000000     0.0606523  
H        H      0.789000000000     0.025900000000     0.483600000000     0.0606523  
H        H      0.569900000000     0.789200000000     0.566500000000     0.0606523  
H        H      0.575600000000     0.967100000000     0.598500000000     0.0606523  
H        H      0.763100000000     0.038800000000     0.629900000000     0.0606523  
H        H      0.261100000000     0.715800000000     0.627500000000     0.0606523  
H        H      0.235200000000     0.544600000000     0.591600000000     0.0606523  
H        H      0.038200000000     0.488300000000     0.563800000000     0.0606523  
H        H      0.995200000000     0.011100000000     0.651400000000     0.0606523  
H        H      0.161500000000     0.899800000000     0.651600000000     0.0606523  
H        H      0.605300000000     0.509800000000     0.332900000000     0.0606523  
H        H      0.374000000000     0.537200000000     0.291200000000     0.0606523  
H        H      0.357800000000     0.632200000000     0.211500000000     0.0606523  
H        H      0.444900000000     0.711900000000     0.141100000000     0.0606523  
H        H      0.788100000000     0.625600000000     0.189300000000     0.0606523  
H        H      0.698600000000     0.550200000000     0.261300000000     0.0606523  
H        H      0.548800000000     0.798700000000     0.077500000000     0.0606523  
H        H      0.775300000000     0.726300000000     0.113200000000     0.0606523  
H        H      0.715400000000     0.309900000000     0.991800000000     0.0606523  
H        H      0.954500000000     0.234300000000     0.972800000000     0.0606523  
H        H      0.123800000000     0.356600000000     0.971200000000     0.0606523  
H        H      0.789000000000     0.474100000000     0.016400000000     0.0606523  
H        H      0.569900000000     0.710800000000     0.933500000000     0.0606523  
H        H      0.575600000000     0.532900000000     0.901500000000     0.0606523  
H        H      0.763100000000     0.461200000000     0.870100000000     0.0606523  
H        H      0.261100000000     0.784200000000     0.872500000000     0.0606523  
H        H      0.235200000000     0.955400000000     0.908400000000     0.0606523  
H        H      0.038200000000     0.011700000000     0.936200000000     0.0606523  
H        H      0.995200000000     0.488900000000     0.848600000000     0.0606523  
H        H      0.161500000000     0.600200000000     0.848400000000     0.0606523  
H        H      0.394700000000     0.009800000000     0.832900000000     0.0606523  
H        H      0.626000000000     0.037200000000     0.791200000000     0.0606523  
H        H      0.642200000000     0.132200000000     0.711500000000     0.0606523  
H        H      0.555100000000     0.211900000000     0.641100000000     0.0606523  
H        H      0.211900000000     0.125600000000     0.689300000000     0.0606523  
H        H      0.301400000000     0.050200000000     0.761300000000     0.0606523  
H        H      0.451200000000     0.298700000000     0.577500000000     0.0606523  
H        H      0.224700000000     0.226300000000     0.613200000000     0.0606523  
H        H      0.284600000000     0.809900000000     0.491800000000     0.0606523  
H        H      0.045500000000     0.734300000000     0.472800000000     0.0606523  
H        H      0.876200000000     0.856600000000     0.471200000000     0.0606523  
H        H      0.211000000000     0.974100000000     0.516400000000     0.0606523  
H        H      0.430100000000     0.210800000000     0.433500000000     0.0606523  
H        H      0.424400000000     0.032900000000     0.401500000000     0.0606523  
H        H      0.236900000000     0.961200000000     0.370100000000     0.0606523  
H        H      0.738900000000     0.284200000000     0.372500000000     0.0606523  
H        H      0.764800000000     0.455400000000     0.408400000000     0.0606523  
H        H      0.961800000000     0.511700000000     0.436200000000     0.0606523  
H        H      0.004800000000     0.988900000000     0.348600000000     0.0606523  
H        H      0.838500000000     0.100200000000     0.348400000000     0.0606523  
H        H      0.394700000000     0.490200000000     0.667100000000     0.0606523  
H        H      0.626000000000     0.462800000000     0.708800000000     0.0606523  
H        H      0.642200000000     0.367800000000     0.788500000000     0.0606523  
H        H      0.555100000000     0.288100000000     0.858900000000     0.0606523  
H        H      0.211900000000     0.374400000000     0.810700000000     0.0606523  
H        H      0.301400000000     0.449800000000     0.738700000000     0.0606523  
H        H      0.451200000000     0.201300000000     0.922500000000     0.0606523  
H        H      0.224700000000     0.273700000000     0.886800000000     0.0606523  
H        H      0.284600000000     0.690100000000     0.008200000000     0.0606523  
H        H      0.045500000000     0.765700000000     0.027200000000     0.0606523  
H        H      0.876200000000     0.643400000000     0.028800000000     0.0606523  
H        H      0.211000000000     0.525900000000     0.983600000000     0.0606523  
H        H      0.430100000000     0.289200000000     0.066500000000     0.0606523  
H        H      0.424400000000     0.467100000000     0.098500000000     0.0606523  
H        H      0.236900000000     0.538800000000     0.129900000000     0.0606523  
H        H      0.738900000000     0.215800000000     0.127500000000     0.0606523  
H        H      0.764800000000     0.044600000000     0.091600000000     0.0606523  
H        H      0.961800000000     0.988300000000     0.063800000000     0.0606523  
H        H      0.004800000000     0.511100000000     0.151400000000     0.0606523  
H        H      0.838500000000     0.399800000000     0.151600000000     0.0606523  
C        C      0.453000000000     0.023800000000     0.118600000000     0.00559008 
C        C      0.517700000000     0.989100000000     0.166900000000     0.00559008 
C        C      0.461400000000     0.957600000000     0.208600000000     0.00559008 
C        C      0.518900000000     0.915000000000     0.255300000000     0.00559008 
C        C      0.444900000000     0.867700000000     0.292400000000     0.00559008 
C        C      0.496900000000     0.820600000000     0.334800000000     0.00559008 
C        C      0.626200000000     0.821000000000     0.342200000000     0.00559008 
C        C      0.701200000000     0.871300000000     0.306000000000     0.00559008 
C        C      0.647200000000     0.917100000000     0.262900000000     0.00559008 
C        C      0.712000000000     0.656600000000     0.462900000000     0.00559008 
C        C      0.635900000000     0.709200000000     0.422000000000     0.00559008 
C        C      0.688100000000     0.766800000000     0.385200000000     0.00559008 
C        C      0.732700000000     0.356200000000     0.523500000000     0.00559008 
C        C      0.775800000000     0.243100000000     0.515500000000     0.00559008 
C        C      0.896200000000     0.212100000000     0.518100000000     0.00559008 
C        C      0.946200000000     0.102600000000     0.508300000000     0.00559008 
C        C      0.073400000000     0.085700000000     0.517400000000     0.00559008 
C        C      0.874100000000     0.015700000000     0.490500000000     0.00559008 
C        C      0.644600000000     0.816900000000     0.580400000000     0.00559008 
C        C      0.647800000000     0.924400000000     0.599100000000     0.00559008 
C        C      0.759400000000     0.966600000000     0.618300000000     0.00559008 
C        C      0.865700000000     0.902000000000     0.620500000000     0.00559008 
C        C      0.853700000000     0.794300000000     0.600800000000     0.00559008 
C        C      0.963700000000     0.724400000000     0.600400000000     0.00559008 
C        C      0.081100000000     0.765500000000     0.618400000000     0.00559008 
C        C      0.182400000000     0.693900000000     0.615300000000     0.00559008 
C        C      0.166900000000     0.591700000000     0.594500000000     0.00559008 
C        C      0.047600000000     0.558400000000     0.577600000000     0.00559008 
C        C      0.986400000000     0.939900000000     0.639000000000     0.00559008 
C        C      0.085500000000     0.873600000000     0.638300000000     0.00559008 
C        C      0.453000000000     0.476200000000     0.381400000000     0.00559008 
C        C      0.517700000000     0.510900000000     0.333100000000     0.00559008 
C        C      0.461400000000     0.542400000000     0.291400000000     0.00559008 
C        C      0.518900000000     0.585000000000     0.244700000000     0.00559008 
C        C      0.444900000000     0.632300000000     0.207600000000     0.00559008 
C        C      0.496900000000     0.679400000000     0.165200000000     0.00559008 
C        C      0.626200000000     0.679000000000     0.157800000000     0.00559008 
C        C      0.701200000000     0.628700000000     0.194000000000     0.00559008 
C        C      0.647200000000     0.582900000000     0.237100000000     0.00559008 
C        C      0.712000000000     0.843400000000     0.037100000000     0.00559008 
C        C      0.635900000000     0.790800000000     0.078000000000     0.00559008 
C        C      0.688100000000     0.733200000000     0.114800000000     0.00559008 
C        C      0.732700000000     0.143800000000     0.976500000000     0.00559008 
C        C      0.775800000000     0.256900000000     0.984500000000     0.00559008 
C        C      0.896200000000     0.287900000000     0.981900000000     0.00559008 
C        C      0.946200000000     0.397400000000     0.991700000000     0.00559008 
C        C      0.073400000000     0.414300000000     0.982600000000     0.00559008 
C        C      0.874100000000     0.484300000000     0.009500000000     0.00559008 
C        C      0.644600000000     0.683100000000     0.919600000000     0.00559008 
C        C      0.647800000000     0.575600000000     0.900900000000     0.00559008 
C        C      0.759400000000     0.533400000000     0.881700000000     0.00559008 
C        C      0.865700000000     0.598000000000     0.879500000000     0.00559008 
C        C      0.853700000000     0.705700000000     0.899200000000     0.00559008 
C        C      0.963700000000     0.775600000000     0.899600000000     0.00559008 
C        C      0.081100000000     0.734500000000     0.881600000000     0.00559008 
C        C      0.182400000000     0.806100000000     0.884700000000     0.00559008 
C        C      0.166900000000     0.908300000000     0.905500000000     0.00559008 
C        C      0.047600000000     0.941600000000     0.922400000000     0.00559008 
C        C      0.986400000000     0.560100000000     0.861000000000     0.00559008 
C        C      0.085500000000     0.626400000000     0.861700000000     0.00559008 
C        C      0.547000000000     0.976200000000     0.881400000000     0.00559008 
C        C      0.482300000000     0.010900000000     0.833100000000     0.00559008 
C        C      0.538600000000     0.042400000000     0.791400000000     0.00559008 
C        C      0.481100000000     0.085000000000     0.744700000000     0.00559008 
C        C      0.555100000000     0.132300000000     0.707600000000     0.00559008 
C        C      0.503100000000     0.179400000000     0.665200000000     0.00559008 
C        C      0.373800000000     0.179000000000     0.657800000000     0.00559008 
C        C      0.298800000000     0.128700000000     0.694000000000     0.00559008 
C        C      0.352800000000     0.082900000000     0.737100000000     0.00559008 
C        C      0.288000000000     0.343400000000     0.537100000000     0.00559008 
C        C      0.364100000000     0.290800000000     0.578000000000     0.00559008 
C        C      0.311900000000     0.233200000000     0.614800000000     0.00559008 
C        C      0.267300000000     0.643800000000     0.476500000000     0.00559008 
C        C      0.224200000000     0.756900000000     0.484500000000     0.00559008 
C        C      0.103800000000     0.787900000000     0.481900000000     0.00559008 
C        C      0.053800000000     0.897400000000     0.491700000000     0.00559008 
C        C      0.926600000000     0.914300000000     0.482600000000     0.00559008 
C        C      0.125900000000     0.984300000000     0.509500000000     0.00559008 
C        C      0.355400000000     0.183100000000     0.419600000000     0.00559008 
C        C      0.352200000000     0.075600000000     0.400900000000     0.00559008 
C        C      0.240600000000     0.033400000000     0.381700000000     0.00559008 
C        C      0.134300000000     0.098000000000     0.379500000000     0.00559008 
C        C      0.146300000000     0.205700000000     0.399200000000     0.00559008 
C        C      0.036300000000     0.275600000000     0.399600000000     0.00559008 
C        C      0.918900000000     0.234500000000     0.381600000000     0.00559008 
C        C      0.817600000000     0.306100000000     0.384700000000     0.00559008 
C        C      0.833100000000     0.408300000000     0.405500000000     0.00559008 
C        C      0.952400000000     0.441600000000     0.422400000000     0.00559008 
C        C      0.013600000000     0.060100000000     0.361000000000     0.00559008 
C        C      0.914500000000     0.126400000000     0.361700000000     0.00559008 
C        C      0.547000000000     0.523800000000     0.618600000000     0.00559008 
C        C      0.482300000000     0.489100000000     0.666900000000     0.00559008 
C        C      0.538600000000     0.457600000000     0.708600000000     0.00559008 
C        C      0.481100000000     0.415000000000     0.755300000000     0.00559008 
C        C      0.555100000000     0.367700000000     0.792400000000     0.00559008 
C        C      0.503100000000     0.320600000000     0.834800000000     0.00559008 
C        C      0.373800000000     0.321000000000     0.842200000000     0.00559008 
C        C      0.298800000000     0.371300000000     0.806000000000     0.00559008 
C        C      0.352800000000     0.417100000000     0.762900000000     0.00559008 
C        C      0.288000000000     0.156600000000     0.962900000000     0.00559008 
C        C      0.364100000000     0.209200000000     0.922000000000     0.00559008 
C        C      0.311900000000     0.266800000000     0.885200000000     0.00559008 
C        C      0.267300000000     0.856200000000     0.023500000000     0.00559008 
C        C      0.224200000000     0.743100000000     0.015500000000     0.00559008 
C        C      0.103800000000     0.712100000000     0.018100000000     0.00559008 
C        C      0.053800000000     0.602600000000     0.008300000000     0.00559008 
C        C      0.926600000000     0.585700000000     0.017400000000     0.00559008 
C        C      0.125900000000     0.515700000000     0.990500000000     0.00559008 
C        C      0.355400000000     0.316900000000     0.080400000000     0.00559008 
C        C      0.352200000000     0.424400000000     0.099100000000     0.00559008 
C        C      0.240600000000     0.466600000000     0.118300000000     0.00559008 
C        C      0.134300000000     0.402000000000     0.120500000000     0.00559008 
C        C      0.146300000000     0.294300000000     0.100800000000     0.00559008 
C        C      0.036300000000     0.224400000000     0.100400000000     0.00559008 
C        C      0.918900000000     0.265500000000     0.118400000000     0.00559008 
C        C      0.817600000000     0.193900000000     0.115300000000     0.00559008 
C        C      0.833100000000     0.091700000000     0.094500000000     0.00559008 
C        C      0.952400000000     0.058400000000     0.077600000000     0.00559008 
C        C      0.013600000000     0.439900000000     0.139000000000     0.00559008 
C        C      0.914500000000     0.373600000000     0.138300000000     0.00559008 
N        N      0.746200000000     0.752600000000     0.582000000000    -0.138924   
N        N      0.947000000000     0.622300000000     0.580570000000    -0.138924   
N        N      0.746200000000     0.747400000000     0.918000000000    -0.138924   
N        N      0.947000000000     0.877700000000     0.919430000000    -0.138924   
N        N      0.253800000000     0.247400000000     0.418000000000    -0.138924   
N        N      0.053000000000     0.377700000000     0.419430000000    -0.138924   
N        N      0.253800000000     0.252600000000     0.082000000000    -0.138924   
N        N      0.053000000000     0.122300000000     0.080570000000    -0.138924   
O        O      0.618600000000     0.373800000000     0.515100000000    -0.304554   
O        O      0.812900000000     0.427300000000     0.537470000000    -0.304554   
O        O      0.649200000000     0.608600000000     0.498470000000    -0.304554   
O        O      0.826900000000     0.665900000000     0.463780000000    -0.304554   
O        O      0.520700000000     0.037100000000     0.080220000000    -0.304554   
O        O      0.334300000000     0.036000000000     0.120550000000    -0.304554   
O        O      0.618600000000     0.126200000000     0.984900000000    -0.304554   
O        O      0.812900000000     0.072700000000     0.962530000000    -0.304554   
O        O      0.649200000000     0.891400000000     0.001530000000    -0.304554   
O        O      0.826900000000     0.834100000000     0.036220000000    -0.304554   
O        O      0.520700000000     0.462900000000     0.419780000000    -0.304554   
O        O      0.334300000000     0.464000000000     0.379450000000    -0.304554   
O        O      0.381400000000     0.626200000000     0.484900000000    -0.304554   
O        O      0.187100000000     0.572700000000     0.462530000000    -0.304554   
O        O      0.350800000000     0.391400000000     0.501530000000    -0.304554   
O        O      0.173100000000     0.334100000000     0.536220000000    -0.304554   
O        O      0.479300000000     0.962900000000     0.919780000000    -0.304554   
O        O      0.665700000000     0.964000000000     0.879450000000    -0.304554   
O        O      0.381400000000     0.873800000000     0.015100000000    -0.304554   
O        O      0.187100000000     0.927300000000     0.037470000000    -0.304554   
O        O      0.350800000000     0.108600000000     0.998470000000    -0.304554   
O        O      0.173100000000     0.165900000000     0.963780000000    -0.304554   
O        O      0.479300000000     0.537100000000     0.580220000000    -0.304554   
O        O      0.665700000000     0.536000000000     0.620550000000    -0.304554   


