data_CUYHIO_original

_audit_creation_method RASPA-1.0
_audit_creation_date 2022-1-31
_audit_author_name 'Felipe Lopes de Oliveira <felipe.lopes.oliveira@ibm.com>'

_cell_length_a    6.2047
_cell_length_b    17.746
_cell_length_c    20.423
_cell_angle_alpha 90
_cell_angle_beta  98.4523
_cell_angle_gamma 90
_cell_volume      2224.32

_symmetry_cell_setting          triclinic
_symmetry_space_group_name_Hall 'P 1'
_symmetry_space_group_name_H-M  'P 1'
_symmetry_Int_Tables_number     1

_symmetry_equiv_pos_as_xyz 'x,y,z'

loop_
_atom_site_label
_atom_site_type_symbol
_atom_site_fract_x
_atom_site_fract_y
_atom_site_fract_z
_atom_site_charge
Zn       Zn     0.211910000000     0.513800000000     0.280620000000     0.430778   
Zn       Zn     0.288090000000     0.013800000000     0.219380000000     0.430778   
Zn       Zn     0.788090000000     0.486200000000     0.719380000000     0.430778   
Zn       Zn     0.711910000000     0.986200000000     0.780620000000     0.430778   
H        H      0.643400000000     0.714000000000     0.265500000000     0.0818313  
H        H      0.443500000000     0.758800000000     0.284800000000     0.0818313  
H        H      0.661100000000     0.683600000000     0.152600000000     0.0818313  
H        H      0.545500000000     0.699200000000     0.042600000000     0.0818313  
H        H      0.206600000000     0.749400000000     0.007200000000     0.0818313  
H        H      0.993800000000     0.790900000000     0.083800000000     0.0818313  
H        H      0.903800000000     0.792700000000     0.193200000000     0.0818313  
H        H      0.058700000000     0.754200000000     0.251100000000     0.0818313  
H        H      0.751600000000     0.473200000000     0.223700000000     0.0818313  
H        H      0.527300000000     0.470300000000     0.125900000000     0.0818313  
H        H      0.979000000000     0.577500000000     0.042600000000     0.0818313  
H        H      0.199100000000     0.577000000000     0.141800000000     0.0818313  
H        H      0.634900000000     0.549600000000     0.974200000000     0.0818313  
H        H      0.892700000000     0.606400000000     0.344100000000     0.0818313  
H        H      0.656200000000     0.595600000000     0.418800000000     0.0818313  
H        H      0.855000000000     0.383200000000     0.452300000000     0.0818313  
H        H      0.084200000000     0.399000000000     0.376200000000     0.0818313  
H        H      0.578800000000     0.429400000000     0.513700000000     0.0818313  
H        H      0.856600000000     0.214000000000     0.234500000000     0.0818313  
H        H      0.056500000000     0.258800000000     0.215200000000     0.0818313  
H        H      0.838900000000     0.183600000000     0.347400000000     0.0818313  
H        H      0.954500000000     0.199200000000     0.457400000000     0.0818313  
H        H      0.293400000000     0.249400000000     0.492800000000     0.0818313  
H        H      0.506200000000     0.290900000000     0.416200000000     0.0818313  
H        H      0.596200000000     0.292700000000     0.306800000000     0.0818313  
H        H      0.441300000000     0.254200000000     0.248900000000     0.0818313  
H        H      0.748400000000     0.973200000000     0.276300000000     0.0818313  
H        H      0.972700000000     0.970300000000     0.374100000000     0.0818313  
H        H      0.521000000000     0.077500000000     0.457400000000     0.0818313  
H        H      0.300900000000     0.077000000000     0.358200000000     0.0818313  
H        H      0.865100000000     0.049600000000     0.525800000000     0.0818313  
H        H      0.607300000000     0.106400000000     0.155900000000     0.0818313  
H        H      0.843800000000     0.095600000000     0.081200000000     0.0818313  
H        H      0.645000000000     0.883200000000     0.047700000000     0.0818313  
H        H      0.415800000000     0.899000000000     0.123800000000     0.0818313  
H        H      0.921200000000     0.929400000000     0.986300000000     0.0818313  
H        H      0.356600000000     0.286000000000     0.734500000000     0.0818313  
H        H      0.556500000000     0.241200000000     0.715200000000     0.0818313  
H        H      0.338900000000     0.316400000000     0.847400000000     0.0818313  
H        H      0.454500000000     0.300800000000     0.957400000000     0.0818313  
H        H      0.793400000000     0.250600000000     0.992800000000     0.0818313  
H        H      0.006200000000     0.209100000000     0.916200000000     0.0818313  
H        H      0.096200000000     0.207300000000     0.806800000000     0.0818313  
H        H      0.941300000000     0.245800000000     0.748900000000     0.0818313  
H        H      0.248400000000     0.526800000000     0.776300000000     0.0818313  
H        H      0.472700000000     0.529700000000     0.874100000000     0.0818313  
H        H      0.021000000000     0.422500000000     0.957400000000     0.0818313  
H        H      0.800900000000     0.423000000000     0.858200000000     0.0818313  
H        H      0.365100000000     0.450400000000     0.025800000000     0.0818313  
H        H      0.107300000000     0.393600000000     0.655900000000     0.0818313  
H        H      0.343800000000     0.404400000000     0.581200000000     0.0818313  
H        H      0.145000000000     0.616800000000     0.547700000000     0.0818313  
H        H      0.915800000000     0.601000000000     0.623800000000     0.0818313  
H        H      0.421200000000     0.570600000000     0.486300000000     0.0818313  
H        H      0.143400000000     0.786000000000     0.765500000000     0.0818313  
H        H      0.943500000000     0.741200000000     0.784800000000     0.0818313  
H        H      0.161100000000     0.816400000000     0.652600000000     0.0818313  
H        H      0.045500000000     0.800800000000     0.542600000000     0.0818313  
H        H      0.706600000000     0.750600000000     0.507200000000     0.0818313  
H        H      0.493800000000     0.709100000000     0.583800000000     0.0818313  
H        H      0.403800000000     0.707300000000     0.693200000000     0.0818313  
H        H      0.558700000000     0.745800000000     0.751100000000     0.0818313  
H        H      0.251600000000     0.026800000000     0.723700000000     0.0818313  
H        H      0.027300000000     0.029700000000     0.625900000000     0.0818313  
H        H      0.479000000000     0.922500000000     0.542600000000     0.0818313  
H        H      0.699100000000     0.923000000000     0.641800000000     0.0818313  
H        H      0.134900000000     0.950400000000     0.474200000000     0.0818313  
H        H      0.392700000000     0.893600000000     0.844100000000     0.0818313  
H        H      0.156200000000     0.904400000000     0.918800000000     0.0818313  
H        H      0.355000000000     0.116800000000     0.952300000000     0.0818313  
H        H      0.584200000000     0.101000000000     0.876200000000     0.0818313  
H        H      0.078800000000     0.070600000000     0.013700000000     0.0818313  
C        C      0.391400000000     0.645300000000     0.280500000000    -0.0122881  
C        C      0.485700000000     0.717100000000     0.258800000000    -0.0122881  
C        C      0.401700000000     0.730000000000     0.185700000000    -0.0122881  
C        C      0.526600000000     0.705900000000     0.138800000000    -0.0122881  
C        C      0.457200000000     0.714300000000     0.073300000000    -0.0122881  
C        C      0.256900000000     0.744900000000     0.052200000000    -0.0122881  
C        C      0.128800000000     0.769300000000     0.098500000000    -0.0122881  
C        C      0.197100000000     0.762200000000     0.166200000000    -0.0122881  
C        C      0.053200000000     0.790100000000     0.215100000000    -0.0122881  
C        C      0.120600000000     0.867100000000     0.243500000000    -0.0122881  
C        C      0.800700000000     0.493700000000     0.186700000000    -0.0122881  
C        C      0.664400000000     0.492200000000     0.128000000000    -0.0122881  
C        C      0.726600000000     0.522400000000     0.072000000000    -0.0122881  
C        C      0.930700000000     0.555100000000     0.078900000000    -0.0122881  
C        C      0.062400000000     0.554800000000     0.138800000000    -0.0122881  
C        C      0.591200000000     0.520300000000     0.007600000000    -0.0122881  
C        C      0.884500000000     0.560700000000     0.365900000000    -0.0122881  
C        C      0.741900000000     0.554600000000     0.410800000000    -0.0122881  
C        C      0.724500000000     0.487000000000     0.444600000000    -0.0122881  
C        C      0.858400000000     0.429200000000     0.430600000000    -0.0122881  
C        C      0.996600000000     0.439300000000     0.384900000000    -0.0122881  
C        C      0.572400000000     0.475700000000     0.492200000000    -0.0122881  
C        C      0.108600000000     0.145300000000     0.219500000000    -0.0122881  
C        C      0.014300000000     0.217100000000     0.241200000000    -0.0122881  
C        C      0.098300000000     0.230000000000     0.314300000000    -0.0122881  
C        C      0.973400000000     0.205900000000     0.361200000000    -0.0122881  
C        C      0.042800000000     0.214300000000     0.426700000000    -0.0122881  
C        C      0.243100000000     0.244900000000     0.447800000000    -0.0122881  
C        C      0.371200000000     0.269300000000     0.401500000000    -0.0122881  
C        C      0.302900000000     0.262200000000     0.333800000000    -0.0122881  
C        C      0.446800000000     0.290100000000     0.284900000000    -0.0122881  
C        C      0.379400000000     0.367100000000     0.256500000000    -0.0122881  
C        C      0.699300000000     0.993700000000     0.313300000000    -0.0122881  
C        C      0.835600000000     0.992200000000     0.372000000000    -0.0122881  
C        C      0.773400000000     0.022400000000     0.428000000000    -0.0122881  
C        C      0.569300000000     0.055100000000     0.421100000000    -0.0122881  
C        C      0.437600000000     0.054800000000     0.361200000000    -0.0122881  
C        C      0.908800000000     0.020300000000     0.492400000000    -0.0122881  
C        C      0.615500000000     0.060700000000     0.134100000000    -0.0122881  
C        C      0.758100000000     0.054600000000     0.089200000000    -0.0122881  
C        C      0.775500000000     0.987000000000     0.055400000000    -0.0122881  
C        C      0.641600000000     0.929200000000     0.069400000000    -0.0122881  
C        C      0.503400000000     0.939300000000     0.115100000000    -0.0122881  
C        C      0.927600000000     0.975700000000     0.007800000000    -0.0122881  
C        C      0.608600000000     0.354700000000     0.719500000000    -0.0122881  
C        C      0.514300000000     0.282900000000     0.741200000000    -0.0122881  
C        C      0.598300000000     0.270000000000     0.814300000000    -0.0122881  
C        C      0.473400000000     0.294100000000     0.861200000000    -0.0122881  
C        C      0.542800000000     0.285700000000     0.926700000000    -0.0122881  
C        C      0.743100000000     0.255100000000     0.947800000000    -0.0122881  
C        C      0.871200000000     0.230700000000     0.901500000000    -0.0122881  
C        C      0.802900000000     0.237800000000     0.833800000000    -0.0122881  
C        C      0.946800000000     0.209900000000     0.784900000000    -0.0122881  
C        C      0.879400000000     0.132900000000     0.756500000000    -0.0122881  
C        C      0.199300000000     0.506300000000     0.813300000000    -0.0122881  
C        C      0.335600000000     0.507800000000     0.872000000000    -0.0122881  
C        C      0.273400000000     0.477600000000     0.928000000000    -0.0122881  
C        C      0.069300000000     0.444900000000     0.921100000000    -0.0122881  
C        C      0.937600000000     0.445200000000     0.861200000000    -0.0122881  
C        C      0.408800000000     0.479700000000     0.992400000000    -0.0122881  
C        C      0.115500000000     0.439300000000     0.634100000000    -0.0122881  
C        C      0.258100000000     0.445400000000     0.589200000000    -0.0122881  
C        C      0.275500000000     0.513000000000     0.555400000000    -0.0122881  
C        C      0.141600000000     0.570800000000     0.569400000000    -0.0122881  
C        C      0.003400000000     0.560700000000     0.615100000000    -0.0122881  
C        C      0.427600000000     0.524300000000     0.507800000000    -0.0122881  
C        C      0.891400000000     0.854700000000     0.780500000000    -0.0122881  
C        C      0.985700000000     0.782900000000     0.758800000000    -0.0122881  
C        C      0.901700000000     0.770000000000     0.685700000000    -0.0122881  
C        C      0.026600000000     0.794100000000     0.638800000000    -0.0122881  
C        C      0.957200000000     0.785700000000     0.573300000000    -0.0122881  
C        C      0.756900000000     0.755100000000     0.552200000000    -0.0122881  
C        C      0.628800000000     0.730700000000     0.598500000000    -0.0122881  
C        C      0.697100000000     0.737800000000     0.666200000000    -0.0122881  
C        C      0.553200000000     0.709900000000     0.715100000000    -0.0122881  
C        C      0.620600000000     0.632900000000     0.743500000000    -0.0122881  
C        C      0.300700000000     0.006300000000     0.686700000000    -0.0122881  
C        C      0.164400000000     0.007800000000     0.628000000000    -0.0122881  
C        C      0.226600000000     0.977600000000     0.572000000000    -0.0122881  
C        C      0.430700000000     0.944900000000     0.578900000000    -0.0122881  
C        C      0.562400000000     0.945200000000     0.638800000000    -0.0122881  
C        C      0.091200000000     0.979700000000     0.507600000000    -0.0122881  
C        C      0.384500000000     0.939300000000     0.865900000000    -0.0122881  
C        C      0.241900000000     0.945400000000     0.910800000000    -0.0122881  
C        C      0.224500000000     0.013000000000     0.944600000000    -0.0122881  
C        C      0.358400000000     0.070800000000     0.930600000000    -0.0122881  
C        C      0.496600000000     0.060700000000     0.884900000000    -0.0122881  
C        C      0.072400000000     0.024300000000     0.992200000000    -0.0122881  
N        N      0.002200000000     0.523300000000     0.194000000000    -0.175352   
N        N      0.012750000000     0.504100000000     0.351850000000    -0.175352   
N        N      0.497800000000     0.023300000000     0.306000000000    -0.175352   
N        N      0.487250000000     0.004100000000     0.148150000000    -0.175352   
N        N      0.997800000000     0.476700000000     0.806000000000    -0.175352   
N        N      0.987250000000     0.495900000000     0.648150000000    -0.175352   
N        N      0.502200000000     0.976700000000     0.694000000000    -0.175352   
N        N      0.512750000000     0.995900000000     0.851850000000    -0.175352   
O        O      0.256900000000     0.646300000000     0.319000000000    -0.320675   
O        O      0.440960000000     0.584500000000     0.257160000000    -0.320675   
O        O      0.134250000000     0.879900000000     0.302850000000    -0.320675   
O        O      0.152410000000     0.915940000000     0.200910000000    -0.320675   
O        O      0.243100000000     0.146300000000     0.181000000000    -0.320675   
O        O      0.059040000000     0.084500000000     0.242840000000    -0.320675   
O        O      0.365750000000     0.379900000000     0.197150000000    -0.320675   
O        O      0.347590000000     0.415940000000     0.299090000000    -0.320675   
O        O      0.743100000000     0.353700000000     0.681000000000    -0.320675   
O        O      0.559040000000     0.415500000000     0.742840000000    -0.320675   
O        O      0.865750000000     0.120100000000     0.697150000000    -0.320675   
O        O      0.847590000000     0.084060000000     0.799090000000    -0.320675   
O        O      0.756900000000     0.853700000000     0.819000000000    -0.320675   
O        O      0.940960000000     0.915500000000     0.757160000000    -0.320675   
O        O      0.634250000000     0.620100000000     0.802850000000    -0.320675   
O        O      0.652410000000     0.584060000000     0.700910000000    -0.320675   


