data_CUYQIX_original

_audit_creation_method RASPA-1.0
_audit_creation_date 2022-1-30
_audit_author_name 'Felipe Lopes de Oliveira <felipe.lopes.oliveira@ibm.com>'

_cell_length_a    8.3207
_cell_length_b    13.112
_cell_length_c    13.4253
_cell_angle_alpha 71.716
_cell_angle_beta  79.758
_cell_angle_gamma 88.055
_cell_volume      1368.23

_symmetry_cell_setting          triclinic
_symmetry_space_group_name_Hall 'P 1'
_symmetry_space_group_name_H-M  'P 1'
_symmetry_Int_Tables_number     1

_symmetry_equiv_pos_as_xyz 'x,y,z'

loop_
_atom_site_label
_atom_site_type_symbol
_atom_site_fract_x
_atom_site_fract_y
_atom_site_fract_z
_atom_site_charge
Zn       Zn     0.774370000000     0.636990000000     0.360840000000     0.400313   
Zn       Zn     0.225630000000     0.363010000000     0.639160000000     0.400313   
Zn       Zn     0.000000000000     0.000000000000     0.000000000000     0.400313   
H        H      0.834100000000     0.518000000000     0.212200000000     0.0733709  
H        H      0.884000000000     0.346700000000     0.202900000000     0.0733709  
H        H      0.731200000000     0.230900000000     0.521300000000     0.0733709  
H        H      0.678500000000     0.404800000000     0.521900000000     0.0733709  
H        H      0.941900000000     0.163200000000     0.293500000000     0.0733709  
H        H      0.752500000000     0.131200000000     0.334200000000     0.0733709  
H        H      0.807600000000     0.951200000000     0.415700000000     0.0733709  
H        H      0.997100000000     0.980500000000     0.368100000000     0.0733709  
H        H      0.131100000000     0.117000000000     0.410400000000     0.0733709  
H        H      0.031800000000     0.179800000000     0.485900000000     0.0733709  
H        H      0.594000000000     0.772400000000     0.482300000000     0.0733709  
H        H      0.547700000000     0.789600000000     0.651400000000     0.0733709  
H        H      0.831100000000     0.532500000000     0.745500000000     0.0733709  
H        H      0.871800000000     0.522600000000     0.574300000000     0.0733709  
H        H      0.560300000000     0.721700000000     0.834200000000     0.0733709  
H        H      0.750200000000     0.704800000000     0.840100000000     0.0733709  
H        H      0.375300000000     0.566600000000     0.895100000000     0.0733709  
H        H      0.491800000000     0.503800000000     0.826400000000     0.0733709  
H        H      0.672100000000     0.620500000000     0.028200000000     0.0733709  
H        H      0.483700000000     0.636700000000     0.016600000000     0.0733709  
H        H      0.575200000000     0.901300000000     0.116800000000     0.0733709  
H        H      0.514600000000     0.807200000000     0.079400000000     0.0733709  
H        H      0.352800000000     0.853800000000     0.267100000000     0.0733709  
H        H      0.312200000000     0.675700000000     0.268500000000     0.0733709  
H        H      0.247500000000     0.719500000000     0.158100000000     0.0733709  
H        H      0.165900000000     0.482000000000     0.787800000000     0.0733709  
H        H      0.116000000000     0.653300000000     0.797100000000     0.0733709  
H        H      0.268800000000     0.769100000000     0.478700000000     0.0733709  
H        H      0.321500000000     0.595200000000     0.478100000000     0.0733709  
H        H      0.058100000000     0.836800000000     0.706500000000     0.0733709  
H        H      0.247500000000     0.868800000000     0.665800000000     0.0733709  
H        H      0.192400000000     0.048800000000     0.584300000000     0.0733709  
H        H      0.002900000000     0.019500000000     0.631900000000     0.0733709  
H        H      0.868900000000     0.883000000000     0.589600000000     0.0733709  
H        H      0.968200000000     0.820200000000     0.514100000000     0.0733709  
H        H      0.406000000000     0.227600000000     0.517700000000     0.0733709  
H        H      0.452300000000     0.210400000000     0.348600000000     0.0733709  
H        H      0.168900000000     0.467500000000     0.254500000000     0.0733709  
H        H      0.128200000000     0.477400000000     0.425700000000     0.0733709  
H        H      0.439700000000     0.278300000000     0.165800000000     0.0733709  
H        H      0.249800000000     0.295200000000     0.159900000000     0.0733709  
H        H      0.624700000000     0.433400000000     0.104900000000     0.0733709  
H        H      0.508200000000     0.496200000000     0.173600000000     0.0733709  
H        H      0.327900000000     0.379500000000     0.971800000000     0.0733709  
H        H      0.516300000000     0.363300000000     0.983400000000     0.0733709  
H        H      0.424800000000     0.098700000000     0.883200000000     0.0733709  
H        H      0.485400000000     0.192800000000     0.920600000000     0.0733709  
H        H      0.647200000000     0.146200000000     0.732900000000     0.0733709  
H        H      0.687800000000     0.324300000000     0.731500000000     0.0733709  
H        H      0.752500000000     0.280500000000     0.841900000000     0.0733709  
C        C      0.812100000000     0.458800000000     0.275790000000    -0.00866914 
C        C      0.843400000000     0.356850000000     0.269790000000    -0.00866914 
C        C      0.815500000000     0.268820000000     0.361620000000    -0.00866914 
C        C      0.752900000000     0.288710000000     0.456520000000    -0.00866914 
C        C      0.722500000000     0.392750000000     0.456290000000    -0.00866914 
C        C      0.849500000000     0.157830000000     0.352740000000    -0.00866914 
C        C      0.910500000000     0.973950000000     0.430860000000    -0.00866914 
C        C      0.043300000000     0.109450000000     0.472790000000    -0.00866914 
C        C      0.642100000000     0.723010000000     0.536660000000    -0.00866914 
C        C      0.614100000000     0.733670000000     0.637320000000    -0.00866914 
C        C      0.683200000000     0.662490000000     0.717920000000    -0.00866914 
C        C      0.780900000000     0.582580000000     0.692670000000    -0.00866914 
C        C      0.804100000000     0.576990000000     0.590720000000    -0.00866914 
C        C      0.652000000000     0.672610000000     0.828390000000    -0.00866914 
C        C      0.468600000000     0.517570000000     0.895980000000    -0.00866914 
C        C      0.575700000000     0.586870000000     0.015970000000    -0.00866914 
C        C      0.625300000000     0.750830000000     0.211040000000    -0.00866914 
C        C      0.520800000000     0.829510000000     0.142580000000    -0.00866914 
C        C      0.346800000000     0.839040000000     0.199160000000    -0.00866914 
C        C      0.251300000000     0.734340000000     0.225590000000    -0.00866914 
C        C      0.078400000000     0.730470000000     0.285360000000    -0.00866914 
C        C      0.267900000000     0.934700000000     0.127080000000    -0.00866914 
C        C      0.187900000000     0.541200000000     0.724210000000    -0.00866914 
C        C      0.156600000000     0.643150000000     0.730210000000    -0.00866914 
C        C      0.184500000000     0.731180000000     0.638380000000    -0.00866914 
C        C      0.247100000000     0.711290000000     0.543480000000    -0.00866914 
C        C      0.277500000000     0.607250000000     0.543710000000    -0.00866914 
C        C      0.150500000000     0.842170000000     0.647260000000    -0.00866914 
C        C      0.089500000000     0.026050000000     0.569140000000    -0.00866914 
C        C      0.956700000000     0.890550000000     0.527210000000    -0.00866914 
C        C      0.357900000000     0.276990000000     0.463340000000    -0.00866914 
C        C      0.385900000000     0.266330000000     0.362680000000    -0.00866914 
C        C      0.316800000000     0.337510000000     0.282080000000    -0.00866914 
C        C      0.219100000000     0.417420000000     0.307330000000    -0.00866914 
C        C      0.195900000000     0.423010000000     0.409280000000    -0.00866914 
C        C      0.348000000000     0.327390000000     0.171610000000    -0.00866914 
C        C      0.531400000000     0.482430000000     0.104020000000    -0.00866914 
C        C      0.424300000000     0.413130000000     0.984030000000    -0.00866914 
C        C      0.374700000000     0.249170000000     0.788960000000    -0.00866914 
C        C      0.479200000000     0.170490000000     0.857420000000    -0.00866914 
C        C      0.653200000000     0.160960000000     0.800840000000    -0.00866914 
C        C      0.748700000000     0.265660000000     0.774410000000    -0.00866914 
C        C      0.921600000000     0.269530000000     0.714640000000    -0.00866914 
C        C      0.732100000000     0.065300000000     0.872920000000    -0.00866914 
N        N      0.752100000000     0.478150000000     0.367450000000    -0.12569    
N        N      0.888700000000     0.079070000000     0.449470000000    -0.12569    
N        N      0.735100000000     0.645150000000     0.512930000000    -0.12569    
N        N      0.612700000000     0.568670000000     0.911580000000    -0.12569    
N        N      0.247900000000     0.521850000000     0.632550000000    -0.12569    
N        N      0.111300000000     0.920930000000     0.550530000000    -0.12569    
N        N      0.264900000000     0.354850000000     0.487070000000    -0.12569    
N        N      0.387300000000     0.431330000000     0.088420000000    -0.12569    
O        O      0.746360000000     0.712270000000     0.167680000000    -0.29021    
O        O      0.589350000000     0.727490000000     0.312080000000    -0.29021    
O        O      0.010240000000     0.637050000000     0.317730000000    -0.29021    
O        O      0.009370000000     0.810850000000     0.300770000000    -0.29021    
O        O      0.183610000000     0.914820000000     0.065930000000    -0.29021    
O        O      0.296480000000     0.026720000000     0.130890000000    -0.29021    
O        O      0.253640000000     0.287730000000     0.832320000000    -0.29021    
O        O      0.410650000000     0.272510000000     0.687920000000    -0.29021    
O        O      0.989760000000     0.362950000000     0.682270000000    -0.29021    
O        O      0.990630000000     0.189150000000     0.699230000000    -0.29021    
O        O      0.816390000000     0.085180000000     0.934070000000    -0.29021    
O        O      0.703520000000     0.973280000000     0.869110000000    -0.29021    


