data_DAXGUG_original

_audit_creation_method RASPA-1.0
_audit_creation_date 2022-1-30
_audit_author_name 'Felipe Lopes de Oliveira <felipe.lopes.oliveira@ibm.com>'

_cell_length_a    7.545
_cell_length_b    9.685
_cell_length_c    13.943
_cell_angle_alpha 81.678
_cell_angle_beta  76.877
_cell_angle_gamma 80.706
_cell_volume      973.018

_symmetry_cell_setting          triclinic
_symmetry_space_group_name_Hall 'P 1'
_symmetry_space_group_name_H-M  'P 1'
_symmetry_Int_Tables_number     1

_symmetry_equiv_pos_as_xyz 'x,y,z'

loop_
_atom_site_label
_atom_site_type_symbol
_atom_site_fract_x
_atom_site_fract_y
_atom_site_fract_z
_atom_site_charge
Zn       Zn     0.772410000000     0.408630000000     0.495910000000     0.511789   
Zn       Zn     0.227590000000     0.591370000000     0.504090000000     0.511789   
H        H      0.115200000000     0.732000000000     0.215700000000     0.078068   
H        H      0.494400000000     0.757000000000     0.214000000000     0.078068   
H        H      0.035400000000     0.570900000000     0.823100000000     0.078068   
H        H      0.013000000000     0.803800000000     0.068400000000     0.078068   
H        H      0.843100000000     0.970100000000     0.729000000000     0.078068   
H        H      0.884300000000     0.605800000000     0.985100000000     0.078068   
H        H      0.695200000000     0.006900000000     0.891500000000     0.078068   
H        H      0.884800000000     0.268000000000     0.784300000000     0.078068   
H        H      0.505600000000     0.243000000000     0.786000000000     0.078068   
H        H      0.964600000000     0.429100000000     0.176900000000     0.078068   
H        H      0.987000000000     0.196200000000     0.931600000000     0.078068   
H        H      0.156900000000     0.029900000000     0.271000000000     0.078068   
H        H      0.115700000000     0.394200000000     0.014900000000     0.078068   
H        H      0.304800000000     0.993100000000     0.108500000000     0.078068   
C        C      0.776100000000     0.809200000000     0.951960000000     0.0502789  
C        C      0.530600000000     0.703800000000     0.395640000000     0.0502789  
C        C      0.937800000000     0.659600000000     0.397010000000     0.0502789  
C        C      0.679400000000     0.718200000000     0.303710000000     0.0502789  
C        C      0.043500000000     0.743900000000     0.655800000000     0.0502789  
C        C      0.866500000000     0.706700000000     0.304450000000     0.0502789  
C        C      0.988200000000     0.738600000000     0.215950000000     0.0502789  
C        C      0.953600000000     0.767000000000     0.760620000000     0.0502789  
C        C      0.620400000000     0.754100000000     0.214980000000     0.0502789  
C        C      0.965600000000     0.659300000000     0.836900000000     0.0502789  
C        C      0.744300000000     0.785500000000     0.128370000000     0.0502789  
C        C      0.928500000000     0.779800000000     0.128040000000     0.0502789  
C        C      0.851900000000     0.896300000000     0.781250000000     0.0502789  
C        C      0.876600000000     0.679700000000     0.932800000000     0.0502789  
C        C      0.763500000000     0.918300000000     0.877240000000     0.0502789  
C        C      0.223900000000     0.190800000000     0.048040000000     0.0502789  
C        C      0.469400000000     0.296200000000     0.604360000000     0.0502789  
C        C      0.062200000000     0.340400000000     0.602990000000     0.0502789  
C        C      0.320600000000     0.281800000000     0.696290000000     0.0502789  
C        C      0.956500000000     0.256100000000     0.344200000000     0.0502789  
C        C      0.133500000000     0.293300000000     0.695550000000     0.0502789  
C        C      0.011800000000     0.261400000000     0.784050000000     0.0502789  
C        C      0.046400000000     0.233000000000     0.239380000000     0.0502789  
C        C      0.379600000000     0.245900000000     0.785020000000     0.0502789  
C        C      0.034400000000     0.340700000000     0.163100000000     0.0502789  
C        C      0.255700000000     0.214500000000     0.871630000000     0.0502789  
C        C      0.071500000000     0.220200000000     0.871960000000     0.0502789  
C        C      0.148100000000     0.103700000000     0.218750000000     0.0502789  
C        C      0.123400000000     0.320300000000     0.067200000000     0.0502789  
C        C      0.236500000000     0.081700000000     0.122760000000     0.0502789  
O        O      0.833400000000     0.607950000000     0.473070000000    -0.258921   
O        O      0.465700000000     0.807240000000     0.441960000000    -0.258921   
O        O      0.018900000000     0.838480000000     0.587830000000    -0.258921   
O        O      0.468200000000     0.587010000000     0.414820000000    -0.258921   
O        O      0.142400000000     0.626600000000     0.641720000000    -0.258921   
O        O      0.102000000000     0.673290000000     0.393530000000    -0.258921   
O        O      0.671200000000     0.832800000000     0.045140000000    -0.258921   
O        O      0.166600000000     0.392050000000     0.526930000000    -0.258921   
O        O      0.534300000000     0.192760000000     0.558040000000    -0.258921   
O        O      0.981100000000     0.161520000000     0.412170000000    -0.258921   
O        O      0.531800000000     0.412990000000     0.585180000000    -0.258921   
O        O      0.857600000000     0.373400000000     0.358280000000    -0.258921   
O        O      0.898000000000     0.326710000000     0.606470000000    -0.258921   
O        O      0.328800000000     0.167200000000     0.954860000000    -0.258921   


