data_DAXHIV01_original

_audit_creation_method RASPA-1.0
_audit_creation_date 2022-1-29
_audit_author_name 'Felipe Lopes de Oliveira <felipe.lopes.oliveira@ibm.com>'

_cell_length_a    12.0115
_cell_length_b    12.102
_cell_length_c    13.6787
_cell_angle_alpha 81.3167
_cell_angle_beta  63.9566
_cell_angle_gamma 69.8879
_cell_volume      1677.55

_symmetry_cell_setting          triclinic
_symmetry_space_group_name_Hall 'P 1'
_symmetry_space_group_name_H-M  'P 1'
_symmetry_Int_Tables_number     1

_symmetry_equiv_pos_as_xyz 'x,y,z'

loop_
_atom_site_label
_atom_site_type_symbol
_atom_site_fract_x
_atom_site_fract_y
_atom_site_fract_z
_atom_site_charge
Fe       Fe     0.000000000000     0.000000000000     0.000000000000     0.686142   
Fe       Fe     0.106640000000     0.258730000000     0.000000000000     0.686142   
Fe       Fe     0.893360000000     0.741270000000     0.000000000000     0.686142   
H        H      0.329800000000     0.920100000000     0.575400000000     0.0577292  
H        H      0.526900000000     0.111700000000     0.607600000000     0.0577292  
H        H      0.094800000000     0.079900000000     0.575400000000     0.0577292  
H        H      0.865500000000     0.888300000000     0.607600000000     0.0577292  
H        H      0.670200000000     0.079900000000     0.424600000000     0.0577292  
H        H      0.473100000000     0.888300000000     0.392400000000     0.0577292  
H        H      0.905200000000     0.920100000000     0.424600000000     0.0577292  
H        H      0.134500000000     0.111700000000     0.392400000000     0.0577292  
H        H      0.527800000000     0.300900000000     0.000000000000     0.0577292  
H        H      0.664600000000     0.559200000000     0.000000000000     0.0577292  
H        H      0.472200000000     0.699100000000     0.000000000000     0.0577292  
H        H      0.335400000000     0.440800000000     0.000000000000     0.0577292  
C        C      0.399250000000     0.953200000000     0.544900000000     0.028111   
C        C      0.413220000000     0.019300000000     0.609360000000     0.028111   
C        C      0.515290000000     0.066200000000     0.564020000000     0.028111   
C        C      0.319910000000     0.042400000000     0.724180000000     0.028111   
C        C      0.055850000000     0.046800000000     0.544900000000     0.028111   
C        C      0.977420000000     0.980700000000     0.609360000000     0.028111   
C        C      0.920690000000     0.933800000000     0.564020000000     0.028111   
C        C      0.955910000000     0.957600000000     0.724180000000     0.028111   
C        C      0.600750000000     0.046800000000     0.455100000000     0.028111   
C        C      0.586780000000     0.980700000000     0.390640000000     0.028111   
C        C      0.484710000000     0.933800000000     0.435980000000     0.028111   
C        C      0.680090000000     0.957600000000     0.275820000000     0.028111   
C        C      0.944150000000     0.953200000000     0.455100000000     0.028111   
C        C      0.022580000000     0.019300000000     0.390640000000     0.028111   
C        C      0.079310000000     0.066200000000     0.435980000000     0.028111   
C        C      0.044090000000     0.042400000000     0.275820000000     0.028111   
C        C      0.517200000000     0.382300000000     0.000000000000     0.028111   
C        C      0.614500000000     0.417300000000     0.000000000000     0.028111   
C        C      0.597900000000     0.533900000000     0.000000000000     0.028111   
C        C      0.736500000000     0.330600000000     0.000000000000     0.028111   
C        C      0.482800000000     0.617700000000     0.000000000000     0.028111   
C        C      0.385500000000     0.582700000000     0.000000000000     0.028111   
C        C      0.402100000000     0.466100000000     0.000000000000     0.028111   
C        C      0.263500000000     0.669400000000     0.000000000000     0.028111   
C        C      0.031360000000     0.500000000000     0.937280000000     0.028111   
C        C      0.968640000000     0.500000000000     0.062720000000     0.028111   
N        N      0.239410000000     0.980200000000     0.781980000000    -0.0979822  
N        N      0.165320000000     0.036300000000     0.877160000000    -0.0979822  
N        N      0.201660000000     0.128300000000     0.875280000000    -0.0979822  
N        N      0.299060000000     0.135100000000     0.779680000000    -0.0979822  
N        N      0.978610000000     0.019800000000     0.781980000000    -0.0979822  
N        N      0.957520000000     0.963700000000     0.877160000000    -0.0979822  
N        N      0.923060000000     0.871700000000     0.875280000000    -0.0979822  
N        N      0.921260000000     0.864900000000     0.779680000000    -0.0979822  
N        N      0.760590000000     0.019800000000     0.218020000000    -0.0979822  
N        N      0.834680000000     0.963700000000     0.122840000000    -0.0979822  
N        N      0.798340000000     0.871700000000     0.124720000000    -0.0979822  
N        N      0.700940000000     0.864900000000     0.220320000000    -0.0979822  
N        N      0.021390000000     0.980200000000     0.218020000000    -0.0979822  
N        N      0.042480000000     0.036300000000     0.122840000000    -0.0979822  
N        N      0.076940000000     0.128300000000     0.124720000000    -0.0979822  
N        N      0.078740000000     0.135100000000     0.220320000000    -0.0979822  
N        N      0.766500000000     0.212700000000     0.000000000000    -0.0979822  
N        N      0.886200000000     0.173700000000     0.000000000000    -0.0979822  
N        N      0.923900000000     0.263100000000     0.000000000000    -0.0979822  
N        N      0.831500000000     0.364100000000     0.000000000000    -0.0979822  
N        N      0.233500000000     0.787300000000     0.000000000000    -0.0979822  
N        N      0.113800000000     0.826300000000     0.000000000000    -0.0979822  
N        N      0.076100000000     0.736900000000     0.000000000000    -0.0979822  
N        N      0.168500000000     0.635900000000     0.000000000000    -0.0979822  
O        O      0.106650000000     0.403610000000     0.890320000000    -0.282622   
O        O      0.003030000000     0.596390000000     0.890320000000    -0.282622   
O        O      0.893350000000     0.596390000000     0.109680000000    -0.282622   
O        O      0.996970000000     0.403610000000     0.109680000000    -0.282622   


