data_DAXHIV_original

_audit_creation_method RASPA-1.0
_audit_creation_date 2022-1-29
_audit_author_name 'Felipe Lopes de Oliveira <felipe.lopes.oliveira@ibm.com>'

_cell_length_a    12.078
_cell_length_b    12.087
_cell_length_c    13.6846
_cell_angle_alpha 81.1179
_cell_angle_beta  63.8133
_cell_angle_gamma 69.52
_cell_volume      1679.41

_symmetry_cell_setting          triclinic
_symmetry_space_group_name_Hall 'P 1'
_symmetry_space_group_name_H-M  'P 1'
_symmetry_Int_Tables_number     1

_symmetry_equiv_pos_as_xyz 'x,y,z'

loop_
_atom_site_label
_atom_site_type_symbol
_atom_site_fract_x
_atom_site_fract_y
_atom_site_fract_z
_atom_site_charge
Fe       Fe     0.000000000000     0.000000000000     0.000000000000     0.686434   
Fe       Fe     0.104390000000     0.258460000000     0.000000000000     0.686434   
Fe       Fe     0.895610000000     0.741540000000     0.000000000000     0.686434   
H        H      0.331400000000     0.919100000000     0.570800000000     0.0569196  
H        H      0.523100000000     0.114600000000     0.606000000000     0.0569196  
H        H      0.097800000000     0.080900000000     0.570800000000     0.0569196  
H        H      0.870900000000     0.885400000000     0.606000000000     0.0569196  
H        H      0.668600000000     0.080900000000     0.429200000000     0.0569196  
H        H      0.476900000000     0.885400000000     0.394000000000     0.0569196  
H        H      0.902200000000     0.919100000000     0.429200000000     0.0569196  
H        H      0.129100000000     0.114600000000     0.394000000000     0.0569196  
H        H      0.528300000000     0.292600000000     0.000000000000     0.0569196  
H        H      0.663400000000     0.560400000000     0.000000000000     0.0569196  
H        H      0.471700000000     0.707400000000     0.000000000000     0.0569196  
H        H      0.336600000000     0.439600000000     0.000000000000     0.0569196  
C        C      0.400600000000     0.951800000000     0.542200000000     0.0276266  
C        C      0.412400000000     0.019300000000     0.610000000000     0.0276266  
C        C      0.513800000000     0.067000000000     0.562800000000     0.0276266  
C        C      0.316600000000     0.042300000000     0.722800000000     0.0276266  
C        C      0.057200000000     0.048200000000     0.542200000000     0.0276266  
C        C      0.977600000000     0.980700000000     0.610000000000     0.0276266  
C        C      0.923400000000     0.933000000000     0.562800000000     0.0276266  
C        C      0.960600000000     0.957700000000     0.722800000000     0.0276266  
C        C      0.599400000000     0.048200000000     0.457800000000     0.0276266  
C        C      0.587600000000     0.980700000000     0.390000000000     0.0276266  
C        C      0.486200000000     0.933000000000     0.437200000000     0.0276266  
C        C      0.683400000000     0.957700000000     0.277200000000     0.0276266  
C        C      0.942800000000     0.951800000000     0.457800000000     0.0276266  
C        C      0.022400000000     0.019300000000     0.390000000000     0.0276266  
C        C      0.076600000000     0.067000000000     0.437200000000     0.0276266  
C        C      0.039400000000     0.042300000000     0.277200000000     0.0276266  
C        C      0.517400000000     0.374400000000     0.000000000000     0.0276266  
C        C      0.616400000000     0.417200000000     0.000000000000     0.0276266  
C        C      0.596600000000     0.536200000000     0.000000000000     0.0276266  
C        C      0.735800000000     0.332200000000     0.000000000000     0.0276266  
C        C      0.482600000000     0.625600000000     0.000000000000     0.0276266  
C        C      0.383600000000     0.582800000000     0.000000000000     0.0276266  
C        C      0.403400000000     0.463800000000     0.000000000000     0.0276266  
C        C      0.264200000000     0.667800000000     0.000000000000     0.0276266  
C        C      0.030600000000     0.500000000000     0.938800000000     0.0276266  
C        C      0.969400000000     0.500000000000     0.061200000000     0.0276266  
N        N      0.237560000000     0.979300000000     0.781880000000    -0.0976912  
N        N      0.163340000000     0.037000000000     0.877120000000    -0.0976912  
N        N      0.198340000000     0.126200000000     0.875520000000    -0.0976912  
N        N      0.296200000000     0.132600000000     0.779800000000    -0.0976912  
N        N      0.980560000000     0.020700000000     0.781880000000    -0.0976912  
N        N      0.959540000000     0.963000000000     0.877120000000    -0.0976912  
N        N      0.926140000000     0.873800000000     0.875520000000    -0.0976912  
N        N      0.924000000000     0.867400000000     0.779800000000    -0.0976912  
N        N      0.762440000000     0.020700000000     0.218120000000    -0.0976912  
N        N      0.836660000000     0.963000000000     0.122880000000    -0.0976912  
N        N      0.801660000000     0.873800000000     0.124480000000    -0.0976912  
N        N      0.703800000000     0.867400000000     0.220200000000    -0.0976912  
N        N      0.019440000000     0.979300000000     0.218120000000    -0.0976912  
N        N      0.040460000000     0.037000000000     0.122880000000    -0.0976912  
N        N      0.073860000000     0.126200000000     0.124480000000    -0.0976912  
N        N      0.076000000000     0.132600000000     0.220200000000    -0.0976912  
N        N      0.767300000000     0.215100000000     0.000000000000    -0.0976912  
N        N      0.886100000000     0.174600000000     0.000000000000    -0.0976912  
N        N      0.920400000000     0.264700000000     0.000000000000    -0.0976912  
N        N      0.831300000000     0.362800000000     0.000000000000    -0.0976912  
N        N      0.232700000000     0.784900000000     0.000000000000    -0.0976912  
N        N      0.113900000000     0.825400000000     0.000000000000    -0.0976912  
N        N      0.079600000000     0.735300000000     0.000000000000    -0.0976912  
N        N      0.168700000000     0.637200000000     0.000000000000    -0.0976912  
O        O      0.106480000000     0.402100000000     0.890640000000    -0.279009   
O        O      0.002880000000     0.597900000000     0.890640000000    -0.279009   
O        O      0.893520000000     0.597900000000     0.109360000000    -0.279009   
O        O      0.997120000000     0.402100000000     0.109360000000    -0.279009   


