data_DEBGIA_original

_audit_creation_method RASPA-1.0
_audit_creation_date 2022-1-30
_audit_author_name 'Felipe Lopes de Oliveira <felipe.lopes.oliveira@ibm.com>'

_cell_length_a    10.101
_cell_length_b    15.679
_cell_length_c    19.16
_cell_angle_alpha 96.41
_cell_angle_beta  90
_cell_angle_gamma 90
_cell_volume      3015.47

_symmetry_cell_setting          triclinic
_symmetry_space_group_name_Hall 'P 1'
_symmetry_space_group_name_H-M  'P 1'
_symmetry_Int_Tables_number     1

_symmetry_equiv_pos_as_xyz 'x,y,z'

loop_
_atom_site_label
_atom_site_type_symbol
_atom_site_fract_x
_atom_site_fract_y
_atom_site_fract_z
_atom_site_charge
Zn       Zn     0.770830000000     0.827800000000     0.292730000000     0.346662   
Zn       Zn     0.302650000000     0.929740000000     0.473410000000     0.346662   
Zn       Zn     0.270830000000     0.672200000000     0.207270000000     0.346662   
Zn       Zn     0.802650000000     0.570260000000     0.026590000000     0.346662   
Zn       Zn     0.229170000000     0.172200000000     0.707270000000     0.346662   
Zn       Zn     0.697350000000     0.070260000000     0.526590000000     0.346662   
Zn       Zn     0.729170000000     0.327800000000     0.792730000000     0.346662   
Zn       Zn     0.197350000000     0.429740000000     0.973410000000     0.346662   
H        H      0.359000000000     0.483500000000     0.167800000000     0.0514043  
H        H      0.385100000000     0.359000000000     0.216000000000     0.0514043  
H        H      0.265100000000     0.490500000000     0.408700000000     0.0514043  
H        H      0.249200000000     0.616000000000     0.359900000000     0.0514043  
H        H      0.341400000000     0.355100000000     0.758500000000     0.0514043  
H        H      0.404000000000     0.477700000000     0.707400000000     0.0514043  
H        H      0.249300000000     0.362600000000     0.509200000000     0.0514043  
H        H      0.211800000000     0.243100000000     0.558900000000     0.0514043  
H        H      0.376800000000     0.124200000000     0.503800000000     0.0514043  
H        H      0.398500000000     0.242400000000     0.449900000000     0.0514043  
H        H      0.188900000000     0.117200000000     0.276300000000     0.0514043  
H        H      0.181000000000     0.996100000000     0.332500000000     0.0514043  
H        H      0.290900000000     0.860400000000     0.617400000000     0.0514043  
H        H      0.322400000000     0.737600000000     0.669300000000     0.0514043  
H        H      0.401000000000     0.613600000000     0.474500000000     0.0514043  
H        H      0.379200000000     0.737000000000     0.426000000000     0.0514043  
H        H      0.859000000000     0.016500000000     0.332200000000     0.0514043  
H        H      0.885100000000     0.141000000000     0.284000000000     0.0514043  
H        H      0.765100000000     0.009500000000     0.091300000000     0.0514043  
H        H      0.749200000000     0.884000000000     0.140100000000     0.0514043  
H        H      0.841400000000     0.144900000000     0.741500000000     0.0514043  
H        H      0.904000000000     0.022300000000     0.792600000000     0.0514043  
H        H      0.749300000000     0.137400000000     0.990800000000     0.0514043  
H        H      0.711800000000     0.256900000000     0.941100000000     0.0514043  
H        H      0.876800000000     0.375800000000     0.996200000000     0.0514043  
H        H      0.898500000000     0.257600000000     0.050100000000     0.0514043  
H        H      0.688900000000     0.382800000000     0.223700000000     0.0514043  
H        H      0.681000000000     0.503900000000     0.167500000000     0.0514043  
H        H      0.790900000000     0.639600000000     0.882600000000     0.0514043  
H        H      0.822400000000     0.762400000000     0.830700000000     0.0514043  
H        H      0.901000000000     0.886400000000     0.025500000000     0.0514043  
H        H      0.879200000000     0.763000000000     0.074000000000     0.0514043  
H        H      0.641000000000     0.516500000000     0.832200000000     0.0514043  
H        H      0.614900000000     0.641000000000     0.784000000000     0.0514043  
H        H      0.734900000000     0.509500000000     0.591300000000     0.0514043  
H        H      0.750800000000     0.384000000000     0.640100000000     0.0514043  
H        H      0.658600000000     0.644900000000     0.241500000000     0.0514043  
H        H      0.596000000000     0.522300000000     0.292600000000     0.0514043  
H        H      0.750700000000     0.637400000000     0.490800000000     0.0514043  
H        H      0.788200000000     0.756900000000     0.441100000000     0.0514043  
H        H      0.623200000000     0.875800000000     0.496200000000     0.0514043  
H        H      0.601500000000     0.757600000000     0.550100000000     0.0514043  
H        H      0.811100000000     0.882800000000     0.723700000000     0.0514043  
H        H      0.819000000000     0.003900000000     0.667500000000     0.0514043  
H        H      0.709100000000     0.139600000000     0.382600000000     0.0514043  
H        H      0.677600000000     0.262400000000     0.330700000000     0.0514043  
H        H      0.599000000000     0.386400000000     0.525500000000     0.0514043  
H        H      0.620800000000     0.263000000000     0.574000000000     0.0514043  
H        H      0.141000000000     0.983500000000     0.667800000000     0.0514043  
H        H      0.114900000000     0.859000000000     0.716000000000     0.0514043  
H        H      0.234900000000     0.990500000000     0.908700000000     0.0514043  
H        H      0.250800000000     0.116000000000     0.859900000000     0.0514043  
H        H      0.158600000000     0.855100000000     0.258500000000     0.0514043  
H        H      0.096000000000     0.977700000000     0.207400000000     0.0514043  
H        H      0.250700000000     0.862600000000     0.009200000000     0.0514043  
H        H      0.288200000000     0.743100000000     0.058900000000     0.0514043  
H        H      0.123200000000     0.624200000000     0.003800000000     0.0514043  
H        H      0.101500000000     0.742400000000     0.949900000000     0.0514043  
H        H      0.311100000000     0.617200000000     0.776300000000     0.0514043  
H        H      0.319000000000     0.496100000000     0.832500000000     0.0514043  
H        H      0.209100000000     0.360400000000     0.117400000000     0.0514043  
H        H      0.177600000000     0.237600000000     0.169300000000     0.0514043  
H        H      0.099000000000     0.113600000000     0.974500000000     0.0514043  
H        H      0.120800000000     0.237000000000     0.926000000000     0.0514043  
C        C      0.345300000000     0.487300000000     0.222300000000     0.00538291 
C        C      0.353700000000     0.410000000000     0.250900000000     0.00538291 
C        C      0.323900000000     0.410400000000     0.321500000000     0.00538291 
C        C      0.293100000000     0.487200000000     0.362300000000     0.00538291 
C        C      0.284800000000     0.561200000000     0.329200000000     0.00538291 
C        C      0.334600000000     0.355600000000     0.701300000000     0.00538291 
C        C      0.359700000000     0.432100000000     0.674900000000     0.00538291 
C        C      0.330100000000     0.437600000000     0.604800000000     0.00538291 
C        C      0.282400000000     0.366800000000     0.563000000000     0.00538291 
C        C      0.257800000000     0.292200000000     0.593300000000     0.00538291 
C        C      0.330700000000     0.119200000000     0.455100000000     0.00538291 
C        C      0.339200000000     0.194000000000     0.423500000000     0.00538291 
C        C      0.286700000000     0.194000000000     0.356700000000     0.00538291 
C        C      0.227900000000     0.120300000000     0.323900000000     0.00538291 
C        C      0.224100000000     0.048300000000     0.359600000000     0.00538291 
C        C      0.323400000000     0.809200000000     0.589600000000     0.00538291 
C        C      0.337600000000     0.734300000000     0.621500000000     0.00538291 
C        C      0.358500000000     0.658500000000     0.578700000000     0.00538291 
C        C      0.373000000000     0.659700000000     0.506800000000     0.00538291 
C        C      0.357400000000     0.737000000000     0.479500000000     0.00538291 
C        C      0.845300000000     0.012700000000     0.277700000000     0.00538291 
C        C      0.853700000000     0.090000000000     0.249100000000     0.00538291 
C        C      0.823900000000     0.089600000000     0.178500000000     0.00538291 
C        C      0.793100000000     0.012800000000     0.137700000000     0.00538291 
C        C      0.784800000000     0.938800000000     0.170800000000     0.00538291 
C        C      0.834600000000     0.144400000000     0.798700000000     0.00538291 
C        C      0.859700000000     0.067900000000     0.825100000000     0.00538291 
C        C      0.830100000000     0.062400000000     0.895200000000     0.00538291 
C        C      0.782400000000     0.133200000000     0.937000000000     0.00538291 
C        C      0.757800000000     0.207800000000     0.906700000000     0.00538291 
C        C      0.830700000000     0.380800000000     0.044900000000     0.00538291 
C        C      0.839200000000     0.306000000000     0.076500000000     0.00538291 
C        C      0.786700000000     0.306000000000     0.143300000000     0.00538291 
C        C      0.727900000000     0.379700000000     0.176100000000     0.00538291 
C        C      0.724100000000     0.451700000000     0.140400000000     0.00538291 
C        C      0.823400000000     0.690800000000     0.910400000000     0.00538291 
C        C      0.837600000000     0.765700000000     0.878500000000     0.00538291 
C        C      0.858500000000     0.841500000000     0.921300000000     0.00538291 
C        C      0.873000000000     0.840300000000     0.993200000000     0.00538291 
C        C      0.857400000000     0.763000000000     0.020500000000     0.00538291 
C        C      0.654700000000     0.512700000000     0.777700000000     0.00538291 
C        C      0.646300000000     0.590000000000     0.749100000000     0.00538291 
C        C      0.676100000000     0.589600000000     0.678500000000     0.00538291 
C        C      0.706900000000     0.512800000000     0.637700000000     0.00538291 
C        C      0.715200000000     0.438800000000     0.670800000000     0.00538291 
C        C      0.665400000000     0.644400000000     0.298700000000     0.00538291 
C        C      0.640300000000     0.567900000000     0.325100000000     0.00538291 
C        C      0.669900000000     0.562400000000     0.395200000000     0.00538291 
C        C      0.717600000000     0.633200000000     0.437000000000     0.00538291 
C        C      0.742200000000     0.707800000000     0.406700000000     0.00538291 
C        C      0.669300000000     0.880800000000     0.544900000000     0.00538291 
C        C      0.660800000000     0.806000000000     0.576500000000     0.00538291 
C        C      0.713300000000     0.806000000000     0.643300000000     0.00538291 
C        C      0.772100000000     0.879700000000     0.676100000000     0.00538291 
C        C      0.775900000000     0.951700000000     0.640400000000     0.00538291 
C        C      0.676600000000     0.190800000000     0.410400000000     0.00538291 
C        C      0.662400000000     0.265700000000     0.378500000000     0.00538291 
C        C      0.641500000000     0.341500000000     0.421300000000     0.00538291 
C        C      0.627000000000     0.340300000000     0.493200000000     0.00538291 
C        C      0.642600000000     0.263000000000     0.520500000000     0.00538291 
C        C      0.154700000000     0.987300000000     0.722300000000     0.00538291 
C        C      0.146300000000     0.910000000000     0.750900000000     0.00538291 
C        C      0.176100000000     0.910400000000     0.821500000000     0.00538291 
C        C      0.206900000000     0.987200000000     0.862300000000     0.00538291 
C        C      0.215200000000     0.061200000000     0.829200000000     0.00538291 
C        C      0.165400000000     0.855600000000     0.201300000000     0.00538291 
C        C      0.140300000000     0.932100000000     0.174900000000     0.00538291 
C        C      0.169900000000     0.937600000000     0.104800000000     0.00538291 
C        C      0.217600000000     0.866800000000     0.063000000000     0.00538291 
C        C      0.242200000000     0.792200000000     0.093300000000     0.00538291 
C        C      0.169300000000     0.619200000000     0.955100000000     0.00538291 
C        C      0.160800000000     0.694000000000     0.923500000000     0.00538291 
C        C      0.213300000000     0.694000000000     0.856700000000     0.00538291 
C        C      0.272100000000     0.620300000000     0.823900000000     0.00538291 
C        C      0.275900000000     0.548300000000     0.859600000000     0.00538291 
C        C      0.176600000000     0.309200000000     0.089600000000     0.00538291 
C        C      0.162400000000     0.234300000000     0.121500000000     0.00538291 
C        C      0.141500000000     0.158500000000     0.078700000000     0.00538291 
C        C      0.127000000000     0.159700000000     0.006800000000     0.00538291 
C        C      0.142600000000     0.237000000000     0.979500000000     0.00538291 
S        S      0.563590000000     0.951030000000     0.384350000000     0.660945   
S        S      0.063590000000     0.548970000000     0.115650000000     0.660945   
S        S      0.436410000000     0.048970000000     0.615650000000     0.660945   
S        S      0.936410000000     0.451030000000     0.884350000000     0.660945   
N        N      0.310500000000     0.561100000000     0.260600000000    -0.131049   
N        N      0.320300000000     0.334900000000     0.358000000000    -0.131049   
N        N      0.282200000000     0.286900000000     0.662100000000    -0.131049   
N        N      0.343200000000     0.514900000000     0.570900000000    -0.131049   
N        N      0.273900000000     0.047100000000     0.423900000000    -0.131049   
N        N      0.290600000000     0.268100000000     0.318600000000    -0.131049   
N        N      0.329800000000     0.810300000000     0.520200000000    -0.131049   
N        N      0.358500000000     0.581200000000     0.613100000000    -0.131049   
N        N      0.810500000000     0.938900000000     0.239400000000    -0.131049   
N        N      0.820300000000     0.165100000000     0.142000000000    -0.131049   
N        N      0.782200000000     0.213100000000     0.837900000000    -0.131049   
N        N      0.843200000000     0.985100000000     0.929100000000    -0.131049   
N        N      0.773900000000     0.452900000000     0.076100000000    -0.131049   
N        N      0.790600000000     0.231900000000     0.181400000000    -0.131049   
N        N      0.829800000000     0.689700000000     0.979800000000    -0.131049   
N        N      0.858500000000     0.918800000000     0.886900000000    -0.131049   
N        N      0.689500000000     0.438900000000     0.739400000000    -0.131049   
N        N      0.679700000000     0.665100000000     0.642000000000    -0.131049   
N        N      0.717800000000     0.713100000000     0.337900000000    -0.131049   
N        N      0.656800000000     0.485100000000     0.429100000000    -0.131049   
N        N      0.726100000000     0.952900000000     0.576100000000    -0.131049   
N        N      0.709400000000     0.731900000000     0.681400000000    -0.131049   
N        N      0.670200000000     0.189700000000     0.479800000000    -0.131049   
N        N      0.641500000000     0.418800000000     0.386900000000    -0.131049   
N        N      0.189500000000     0.061100000000     0.760600000000    -0.131049   
N        N      0.179700000000     0.834900000000     0.858000000000    -0.131049   
N        N      0.217800000000     0.786900000000     0.162100000000    -0.131049   
N        N      0.156800000000     0.014900000000     0.070900000000    -0.131049   
N        N      0.226100000000     0.547100000000     0.923900000000    -0.131049   
N        N      0.209400000000     0.768100000000     0.818600000000    -0.131049   
N        N      0.170200000000     0.310300000000     0.020200000000    -0.131049   
N        N      0.141500000000     0.081200000000     0.113100000000    -0.131049   
O        O      0.688900000000     0.901000000000     0.377500000000    -0.309001   
O        O      0.457800000000     0.893400000000     0.405200000000    -0.309001   
O        O      0.580500000000     0.022000000000     0.440500000000    -0.309001   
O        O      0.529600000000     0.983000000000     0.317800000000    -0.309001   
O        O      0.188900000000     0.599000000000     0.122500000000    -0.309001   
O        O      0.957800000000     0.606600000000     0.094800000000    -0.309001   
O        O      0.080500000000     0.478000000000     0.059500000000    -0.309001   
O        O      0.029600000000     0.517000000000     0.182200000000    -0.309001   
O        O      0.311100000000     0.099000000000     0.622500000000    -0.309001   
O        O      0.542200000000     0.106600000000     0.594800000000    -0.309001   
O        O      0.419500000000     0.978000000000     0.559500000000    -0.309001   
O        O      0.470400000000     0.017000000000     0.682200000000    -0.309001   
O        O      0.811100000000     0.401000000000     0.877500000000    -0.309001   
O        O      0.042200000000     0.393400000000     0.905200000000    -0.309001   
O        O      0.919500000000     0.522000000000     0.940500000000    -0.309001   
O        O      0.970400000000     0.483000000000     0.817800000000    -0.309001   


