data_DEBNUU_original

_audit_creation_method RASPA-1.0
_audit_creation_date 2022-1-28
_audit_author_name 'Felipe Lopes de Oliveira <felipe.lopes.oliveira@ibm.com>'

_cell_length_a    7.8951
_cell_length_b    10.3271
_cell_length_c    10.5407
_cell_angle_alpha 109.819
_cell_angle_beta  90
_cell_angle_gamma 90
_cell_volume      808.515

_symmetry_cell_setting          triclinic
_symmetry_space_group_name_Hall 'P 1'
_symmetry_space_group_name_H-M  'P 1'
_symmetry_Int_Tables_number     1

_symmetry_equiv_pos_as_xyz 'x,y,z'

loop_
_atom_site_label
_atom_site_type_symbol
_atom_site_fract_x
_atom_site_fract_y
_atom_site_fract_z
_atom_site_charge
Al       Al     0.570200000000     0.290700000000     0.680600000000     4.97676    
Al       Al     0.570200000000     0.209300000000     0.319400000000     4.97676    
Al       Al     0.429800000000     0.709300000000     0.319400000000     4.97676    
Al       Al     0.429800000000     0.790700000000     0.680600000000     4.97676    
Al       Al     0.500000000000     0.000000000000     0.000000000000     4.97676    
Al       Al     0.500000000000     0.500000000000     0.000000000000     4.97676    
P        P      0.691500000000     0.034810000000     0.753700000000     0.835889   
P        P      0.691500000000     0.465190000000     0.246300000000     0.835889   
P        P      0.308500000000     0.965190000000     0.246300000000     0.835889   
P        P      0.308500000000     0.534810000000     0.753700000000     0.835889   
C        C      0.897400000000     0.962200000000     0.764300000000     0.224661   
C        C      0.017300000000     0.072300000000     0.841000000000     0.224661   
C        C      0.191300000000     0.013200000000     0.841900000000     0.224661   
C        C      0.897400000000     0.537800000000     0.235700000000     0.224661   
C        C      0.017300000000     0.427700000000     0.159000000000     0.224661   
C        C      0.191300000000     0.486800000000     0.158100000000     0.224661   
C        C      0.102600000000     0.037800000000     0.235700000000     0.224661   
C        C      0.982700000000     0.927700000000     0.159000000000     0.224661   
C        C      0.808700000000     0.986800000000     0.158100000000     0.224661   
C        C      0.102600000000     0.462200000000     0.764300000000     0.224661   
C        C      0.982700000000     0.572300000000     0.841000000000     0.224661   
C        C      0.808700000000     0.513200000000     0.841900000000     0.224661   
O        O      0.609600000000     0.087200000000     0.893800000000    -1.38077    
O        O      0.715300000000     0.154000000000     0.697400000000    -1.38077    
O        O      0.583100000000     0.919100000000     0.653300000000    -1.38077    
O        O      0.251000000000     0.931200000000     0.736400000000    -1.38077    
O        O      0.274200000000     0.049200000000     0.947600000000    -1.38077    
O        O      0.503200000000     0.833300000000     0.862400000000    -1.38077    
O        O      0.609600000000     0.412800000000     0.106200000000    -1.38077    
O        O      0.715300000000     0.346000000000     0.302600000000    -1.38077    
O        O      0.583100000000     0.580900000000     0.346700000000    -1.38077    
O        O      0.251000000000     0.568800000000     0.263600000000    -1.38077    
O        O      0.274200000000     0.450800000000     0.052400000000    -1.38077    
O        O      0.503200000000     0.666700000000     0.137600000000    -1.38077    
O        O      0.390400000000     0.912800000000     0.106200000000    -1.38077    
O        O      0.284700000000     0.846000000000     0.302600000000    -1.38077    
O        O      0.416900000000     0.080900000000     0.346700000000    -1.38077    
O        O      0.749000000000     0.068800000000     0.263600000000    -1.38077    
O        O      0.725800000000     0.950800000000     0.052400000000    -1.38077    
O        O      0.496800000000     0.166700000000     0.137600000000    -1.38077    
O        O      0.390400000000     0.587200000000     0.893800000000    -1.38077    
O        O      0.284700000000     0.654000000000     0.697400000000    -1.38077    
O        O      0.416900000000     0.419100000000     0.653300000000    -1.38077    
O        O      0.749000000000     0.431200000000     0.736400000000    -1.38077    
O        O      0.725800000000     0.549200000000     0.947600000000    -1.38077    
O        O      0.496800000000     0.333300000000     0.862400000000    -1.38077    
O        O      0.647400000000     0.250000000000     0.500000000000    -1.38077    
O        O      0.352600000000     0.750000000000     0.500000000000    -1.38077    


