data_DEJCEB_original

_audit_creation_method RASPA-1.0
_audit_creation_date 2022-1-31
_audit_author_name 'Felipe Lopes de Oliveira <felipe.lopes.oliveira@ibm.com>'

_cell_length_a    14.04
_cell_length_b    14.345
_cell_length_c    27.756
_cell_angle_alpha 90
_cell_angle_beta  90
_cell_angle_gamma 90
_cell_volume      5590.16

_symmetry_cell_setting          triclinic
_symmetry_space_group_name_Hall 'P 1'
_symmetry_space_group_name_H-M  'P 1'
_symmetry_Int_Tables_number     1

_symmetry_equiv_pos_as_xyz 'x,y,z'

loop_
_atom_site_label
_atom_site_type_symbol
_atom_site_fract_x
_atom_site_fract_y
_atom_site_fract_z
_atom_site_charge
Zn       Zn     0.713720000000     0.591160000000     0.402210000000     0.410597   
Zn       Zn     0.712610000000     0.989230000000     0.652790000000     0.410597   
Zn       Zn     0.786280000000     0.408840000000     0.902210000000     0.410597   
Zn       Zn     0.787390000000     0.010770000000     0.152790000000     0.410597   
Zn       Zn     0.286280000000     0.091160000000     0.097790000000     0.410597   
Zn       Zn     0.287390000000     0.489230000000     0.847210000000     0.410597   
Zn       Zn     0.213720000000     0.908840000000     0.597790000000     0.410597   
Zn       Zn     0.212610000000     0.510770000000     0.347210000000     0.410597   
Zn       Zn     0.286280000000     0.408840000000     0.597790000000     0.410597   
Zn       Zn     0.287390000000     0.010770000000     0.347210000000     0.410597   
Zn       Zn     0.213720000000     0.591160000000     0.097790000000     0.410597   
Zn       Zn     0.212610000000     0.989230000000     0.847210000000     0.410597   
Zn       Zn     0.713720000000     0.908840000000     0.902210000000     0.410597   
Zn       Zn     0.712610000000     0.510770000000     0.152790000000     0.410597   
Zn       Zn     0.786280000000     0.091160000000     0.402210000000     0.410597   
Zn       Zn     0.787390000000     0.489230000000     0.652790000000     0.410597   
H        H      0.696900000000     0.975400000000     0.543400000000     0.0536744  
H        H      0.699800000000     0.860200000000     0.485200000000     0.0536744  
H        H      0.704100000000     0.786300000000     0.646300000000     0.0536744  
H        H      0.268700000000     0.522900000000     0.242500000000     0.0536744  
H        H      0.402700000000     0.541200000000     0.196600000000     0.0536744  
H        H      0.420300000000     0.551400000000     0.362500000000     0.0536744  
H        H      0.762800000000     0.401700000000     0.363000000000     0.0536744  
H        H      0.881800000000     0.294800000000     0.363300000000     0.0536744  
H        H      0.027600000000     0.332100000000     0.400000000000     0.0536744  
H        H      0.042200000000     0.474700000000     0.440600000000     0.0536744  
H        H      0.915200000000     0.577600000000     0.438300000000     0.0536744  
H        H      0.803100000000     0.024600000000     0.043400000000     0.0536744  
H        H      0.800200000000     0.139800000000     0.985200000000     0.0536744  
H        H      0.795900000000     0.213700000000     0.146300000000     0.0536744  
H        H      0.231300000000     0.477100000000     0.742500000000     0.0536744  
H        H      0.097300000000     0.458800000000     0.696600000000     0.0536744  
H        H      0.079700000000     0.448600000000     0.862500000000     0.0536744  
H        H      0.737200000000     0.598300000000     0.863000000000     0.0536744  
H        H      0.618200000000     0.705200000000     0.863300000000     0.0536744  
H        H      0.472400000000     0.667900000000     0.900000000000     0.0536744  
H        H      0.457800000000     0.525300000000     0.940600000000     0.0536744  
H        H      0.584800000000     0.422400000000     0.938300000000     0.0536744  
H        H      0.303100000000     0.475400000000     0.956600000000     0.0536744  
H        H      0.300200000000     0.360200000000     0.014800000000     0.0536744  
H        H      0.295900000000     0.286300000000     0.853700000000     0.0536744  
H        H      0.731300000000     0.022900000000     0.257500000000     0.0536744  
H        H      0.597300000000     0.041200000000     0.303400000000     0.0536744  
H        H      0.579700000000     0.051400000000     0.137500000000     0.0536744  
H        H      0.237200000000     0.901700000000     0.137000000000     0.0536744  
H        H      0.118200000000     0.794800000000     0.136700000000     0.0536744  
H        H      0.972400000000     0.832100000000     0.100000000000     0.0536744  
H        H      0.957800000000     0.974700000000     0.059400000000     0.0536744  
H        H      0.084800000000     0.077600000000     0.061700000000     0.0536744  
H        H      0.196900000000     0.524600000000     0.456600000000     0.0536744  
H        H      0.199800000000     0.639800000000     0.514800000000     0.0536744  
H        H      0.204100000000     0.713700000000     0.353700000000     0.0536744  
H        H      0.768700000000     0.977100000000     0.757500000000     0.0536744  
H        H      0.902700000000     0.958800000000     0.803400000000     0.0536744  
H        H      0.920300000000     0.948600000000     0.637500000000     0.0536744  
H        H      0.262800000000     0.098300000000     0.637000000000     0.0536744  
H        H      0.381800000000     0.205200000000     0.636700000000     0.0536744  
H        H      0.527600000000     0.167900000000     0.600000000000     0.0536744  
H        H      0.542200000000     0.025300000000     0.559400000000     0.0536744  
H        H      0.415200000000     0.922400000000     0.561700000000     0.0536744  
H        H      0.303100000000     0.024600000000     0.456600000000     0.0536744  
H        H      0.300200000000     0.139800000000     0.514800000000     0.0536744  
H        H      0.295900000000     0.213700000000     0.353700000000     0.0536744  
H        H      0.731300000000     0.477100000000     0.757500000000     0.0536744  
H        H      0.597300000000     0.458800000000     0.803400000000     0.0536744  
H        H      0.579700000000     0.448600000000     0.637500000000     0.0536744  
H        H      0.237200000000     0.598300000000     0.637000000000     0.0536744  
H        H      0.118200000000     0.705200000000     0.636700000000     0.0536744  
H        H      0.972400000000     0.667900000000     0.600000000000     0.0536744  
H        H      0.957800000000     0.525300000000     0.559400000000     0.0536744  
H        H      0.084800000000     0.422400000000     0.561700000000     0.0536744  
H        H      0.196900000000     0.975400000000     0.956600000000     0.0536744  
H        H      0.199800000000     0.860200000000     0.014800000000     0.0536744  
H        H      0.204100000000     0.786300000000     0.853700000000     0.0536744  
H        H      0.768700000000     0.522900000000     0.257500000000     0.0536744  
H        H      0.902700000000     0.541200000000     0.303400000000     0.0536744  
H        H      0.920300000000     0.551400000000     0.137500000000     0.0536744  
H        H      0.262800000000     0.401700000000     0.137000000000     0.0536744  
H        H      0.381800000000     0.294800000000     0.136700000000     0.0536744  
H        H      0.527600000000     0.332100000000     0.100000000000     0.0536744  
H        H      0.542200000000     0.474700000000     0.059400000000     0.0536744  
H        H      0.415200000000     0.577600000000     0.061700000000     0.0536744  
H        H      0.696900000000     0.524600000000     0.043400000000     0.0536744  
H        H      0.699800000000     0.639800000000     0.985200000000     0.0536744  
H        H      0.704100000000     0.713700000000     0.146300000000     0.0536744  
H        H      0.268700000000     0.977100000000     0.742500000000     0.0536744  
H        H      0.402700000000     0.958800000000     0.696600000000     0.0536744  
H        H      0.420300000000     0.948600000000     0.862500000000     0.0536744  
H        H      0.762800000000     0.098300000000     0.863000000000     0.0536744  
H        H      0.881800000000     0.205200000000     0.863300000000     0.0536744  
H        H      0.027600000000     0.167900000000     0.900000000000     0.0536744  
H        H      0.042200000000     0.025300000000     0.940600000000     0.0536744  
H        H      0.915200000000     0.922400000000     0.938300000000     0.0536744  
H        H      0.803100000000     0.475400000000     0.543400000000     0.0536744  
H        H      0.800200000000     0.360200000000     0.485200000000     0.0536744  
H        H      0.795900000000     0.286300000000     0.646300000000     0.0536744  
H        H      0.231300000000     0.022900000000     0.242500000000     0.0536744  
H        H      0.097300000000     0.041200000000     0.196600000000     0.0536744  
H        H      0.079700000000     0.051400000000     0.362500000000     0.0536744  
H        H      0.737200000000     0.901700000000     0.363000000000     0.0536744  
H        H      0.618200000000     0.794800000000     0.363300000000     0.0536744  
H        H      0.472400000000     0.832100000000     0.400000000000     0.0536744  
H        H      0.457800000000     0.974700000000     0.440600000000     0.0536744  
H        H      0.584800000000     0.077600000000     0.438300000000     0.0536744  
C        C      0.701200000000     0.912000000000     0.553000000000     0.0617046  
C        C      0.704800000000     0.843900000000     0.518300000000     0.0617046  
C        C      0.715900000000     0.750300000000     0.531600000000     0.0617046  
C        C      0.713600000000     0.730000000000     0.580200000000     0.0617046  
C        C      0.706700000000     0.801400000000     0.613000000000     0.0617046  
C        C      0.736100000000     0.675800000000     0.494500000000     0.0617046  
C        C      0.718900000000     0.630900000000     0.598800000000     0.0617046  
C        C      0.328200000000     0.532400000000     0.258100000000     0.0617046  
C        C      0.407400000000     0.542800000000     0.230700000000     0.0617046  
C        C      0.496200000000     0.555800000000     0.252700000000     0.0617046  
C        C      0.498800000000     0.560200000000     0.302600000000     0.0617046  
C        C      0.417200000000     0.549200000000     0.328400000000     0.0617046  
C        C      0.583000000000     0.573300000000     0.221100000000     0.0617046  
C        C      0.591300000000     0.567400000000     0.329700000000     0.0617046  
C        C      0.820800000000     0.416800000000     0.378800000000     0.0617046  
C        C      0.890600000000     0.353500000000     0.378500000000     0.0617046  
C        C      0.976000000000     0.374900000000     0.400800000000     0.0617046  
C        C      0.985200000000     0.458800000000     0.424000000000     0.0617046  
C        C      0.909200000000     0.519200000000     0.422500000000     0.0617046  
C        C      0.798800000000     0.088000000000     0.053000000000     0.0617046  
C        C      0.795200000000     0.156100000000     0.018300000000     0.0617046  
C        C      0.784100000000     0.249700000000     0.031600000000     0.0617046  
C        C      0.786400000000     0.270000000000     0.080200000000     0.0617046  
C        C      0.793300000000     0.198600000000     0.113000000000     0.0617046  
C        C      0.763900000000     0.324200000000     0.994500000000     0.0617046  
C        C      0.781100000000     0.369100000000     0.098800000000     0.0617046  
C        C      0.171800000000     0.467600000000     0.758100000000     0.0617046  
C        C      0.092600000000     0.457200000000     0.730700000000     0.0617046  
C        C      0.003800000000     0.444200000000     0.752700000000     0.0617046  
C        C      0.001200000000     0.439800000000     0.802600000000     0.0617046  
C        C      0.082800000000     0.450800000000     0.828400000000     0.0617046  
C        C      0.917000000000     0.426700000000     0.721100000000     0.0617046  
C        C      0.908700000000     0.432600000000     0.829700000000     0.0617046  
C        C      0.679200000000     0.583200000000     0.878800000000     0.0617046  
C        C      0.609400000000     0.646500000000     0.878500000000     0.0617046  
C        C      0.524000000000     0.625100000000     0.900800000000     0.0617046  
C        C      0.514800000000     0.541200000000     0.924000000000     0.0617046  
C        C      0.590800000000     0.480800000000     0.922500000000     0.0617046  
C        C      0.298800000000     0.412000000000     0.947000000000     0.0617046  
C        C      0.295200000000     0.343900000000     0.981700000000     0.0617046  
C        C      0.284100000000     0.250300000000     0.968400000000     0.0617046  
C        C      0.286400000000     0.230000000000     0.919800000000     0.0617046  
C        C      0.293300000000     0.301400000000     0.887000000000     0.0617046  
C        C      0.263900000000     0.175800000000     0.005500000000     0.0617046  
C        C      0.281100000000     0.130900000000     0.901200000000     0.0617046  
C        C      0.671800000000     0.032400000000     0.241900000000     0.0617046  
C        C      0.592600000000     0.042800000000     0.269300000000     0.0617046  
C        C      0.503800000000     0.055800000000     0.247300000000     0.0617046  
C        C      0.501200000000     0.060200000000     0.197400000000     0.0617046  
C        C      0.582800000000     0.049200000000     0.171600000000     0.0617046  
C        C      0.417000000000     0.073300000000     0.278900000000     0.0617046  
C        C      0.408700000000     0.067400000000     0.170300000000     0.0617046  
C        C      0.179200000000     0.916800000000     0.121200000000     0.0617046  
C        C      0.109400000000     0.853500000000     0.121500000000     0.0617046  
C        C      0.024000000000     0.874900000000     0.099200000000     0.0617046  
C        C      0.014800000000     0.958800000000     0.076000000000     0.0617046  
C        C      0.090800000000     0.019200000000     0.077500000000     0.0617046  
C        C      0.201200000000     0.588000000000     0.447000000000     0.0617046  
C        C      0.204800000000     0.656100000000     0.481700000000     0.0617046  
C        C      0.215900000000     0.749700000000     0.468400000000     0.0617046  
C        C      0.213600000000     0.770000000000     0.419800000000     0.0617046  
C        C      0.206700000000     0.698600000000     0.387000000000     0.0617046  
C        C      0.236100000000     0.824200000000     0.505500000000     0.0617046  
C        C      0.218900000000     0.869100000000     0.401200000000     0.0617046  
C        C      0.828200000000     0.967600000000     0.741900000000     0.0617046  
C        C      0.907400000000     0.957200000000     0.769300000000     0.0617046  
C        C      0.996200000000     0.944200000000     0.747300000000     0.0617046  
C        C      0.998800000000     0.939800000000     0.697400000000     0.0617046  
C        C      0.917200000000     0.950800000000     0.671600000000     0.0617046  
C        C      0.083000000000     0.926700000000     0.778900000000     0.0617046  
C        C      0.091300000000     0.932600000000     0.670300000000     0.0617046  
C        C      0.320800000000     0.083200000000     0.621200000000     0.0617046  
C        C      0.390600000000     0.146500000000     0.621500000000     0.0617046  
C        C      0.476000000000     0.125100000000     0.599200000000     0.0617046  
C        C      0.485200000000     0.041200000000     0.576000000000     0.0617046  
C        C      0.409200000000     0.980800000000     0.577500000000     0.0617046  
C        C      0.298800000000     0.088000000000     0.447000000000     0.0617046  
C        C      0.295200000000     0.156100000000     0.481700000000     0.0617046  
C        C      0.284100000000     0.249700000000     0.468400000000     0.0617046  
C        C      0.286400000000     0.270000000000     0.419800000000     0.0617046  
C        C      0.293300000000     0.198600000000     0.387000000000     0.0617046  
C        C      0.263900000000     0.324200000000     0.505500000000     0.0617046  
C        C      0.281100000000     0.369100000000     0.401200000000     0.0617046  
C        C      0.671800000000     0.467600000000     0.741900000000     0.0617046  
C        C      0.592600000000     0.457200000000     0.769300000000     0.0617046  
C        C      0.503800000000     0.444200000000     0.747300000000     0.0617046  
C        C      0.501200000000     0.439800000000     0.697400000000     0.0617046  
C        C      0.582800000000     0.450800000000     0.671600000000     0.0617046  
C        C      0.417000000000     0.426700000000     0.778900000000     0.0617046  
C        C      0.408700000000     0.432600000000     0.670300000000     0.0617046  
C        C      0.179200000000     0.583200000000     0.621200000000     0.0617046  
C        C      0.109400000000     0.646500000000     0.621500000000     0.0617046  
C        C      0.024000000000     0.625100000000     0.599200000000     0.0617046  
C        C      0.014800000000     0.541200000000     0.576000000000     0.0617046  
C        C      0.090800000000     0.480800000000     0.577500000000     0.0617046  
C        C      0.201200000000     0.912000000000     0.947000000000     0.0617046  
C        C      0.204800000000     0.843900000000     0.981700000000     0.0617046  
C        C      0.215900000000     0.750300000000     0.968400000000     0.0617046  
C        C      0.213600000000     0.730000000000     0.919800000000     0.0617046  
C        C      0.206700000000     0.801400000000     0.887000000000     0.0617046  
C        C      0.236100000000     0.675800000000     0.005500000000     0.0617046  
C        C      0.218900000000     0.630900000000     0.901200000000     0.0617046  
C        C      0.828200000000     0.532400000000     0.241900000000     0.0617046  
C        C      0.907400000000     0.542800000000     0.269300000000     0.0617046  
C        C      0.996200000000     0.555800000000     0.247300000000     0.0617046  
C        C      0.998800000000     0.560200000000     0.197400000000     0.0617046  
C        C      0.917200000000     0.549200000000     0.171600000000     0.0617046  
C        C      0.083000000000     0.573300000000     0.278900000000     0.0617046  
C        C      0.091300000000     0.567400000000     0.170300000000     0.0617046  
C        C      0.320800000000     0.416800000000     0.121200000000     0.0617046  
C        C      0.390600000000     0.353500000000     0.121500000000     0.0617046  
C        C      0.476000000000     0.374900000000     0.099200000000     0.0617046  
C        C      0.485200000000     0.458800000000     0.076000000000     0.0617046  
C        C      0.409200000000     0.519200000000     0.077500000000     0.0617046  
C        C      0.701200000000     0.588000000000     0.053000000000     0.0617046  
C        C      0.704800000000     0.656100000000     0.018300000000     0.0617046  
C        C      0.715900000000     0.749700000000     0.031600000000     0.0617046  
C        C      0.713600000000     0.770000000000     0.080200000000     0.0617046  
C        C      0.706700000000     0.698600000000     0.113000000000     0.0617046  
C        C      0.736100000000     0.824200000000     0.994500000000     0.0617046  
C        C      0.718900000000     0.869100000000     0.098800000000     0.0617046  
C        C      0.328200000000     0.967600000000     0.758100000000     0.0617046  
C        C      0.407400000000     0.957200000000     0.730700000000     0.0617046  
C        C      0.496200000000     0.944200000000     0.752700000000     0.0617046  
C        C      0.498800000000     0.939800000000     0.802600000000     0.0617046  
C        C      0.417200000000     0.950800000000     0.828400000000     0.0617046  
C        C      0.583000000000     0.926700000000     0.721100000000     0.0617046  
C        C      0.591300000000     0.932600000000     0.829700000000     0.0617046  
C        C      0.820800000000     0.083200000000     0.878800000000     0.0617046  
C        C      0.890600000000     0.146500000000     0.878500000000     0.0617046  
C        C      0.976000000000     0.125100000000     0.900800000000     0.0617046  
C        C      0.985200000000     0.041200000000     0.924000000000     0.0617046  
C        C      0.909200000000     0.980800000000     0.922500000000     0.0617046  
C        C      0.798800000000     0.412000000000     0.553000000000     0.0617046  
C        C      0.795200000000     0.343900000000     0.518300000000     0.0617046  
C        C      0.784100000000     0.250300000000     0.531600000000     0.0617046  
C        C      0.786400000000     0.230000000000     0.580200000000     0.0617046  
C        C      0.793300000000     0.301400000000     0.613000000000     0.0617046  
C        C      0.763900000000     0.175800000000     0.494500000000     0.0617046  
C        C      0.781100000000     0.130900000000     0.598800000000     0.0617046  
C        C      0.171800000000     0.032400000000     0.258100000000     0.0617046  
C        C      0.092600000000     0.042800000000     0.230700000000     0.0617046  
C        C      0.003800000000     0.055800000000     0.252700000000     0.0617046  
C        C      0.001200000000     0.060200000000     0.302600000000     0.0617046  
C        C      0.082800000000     0.049200000000     0.328400000000     0.0617046  
C        C      0.917000000000     0.073300000000     0.221100000000     0.0617046  
C        C      0.908700000000     0.067400000000     0.329700000000     0.0617046  
C        C      0.679200000000     0.916800000000     0.378800000000     0.0617046  
C        C      0.609400000000     0.853500000000     0.378500000000     0.0617046  
C        C      0.524000000000     0.874900000000     0.400800000000     0.0617046  
C        C      0.514800000000     0.958800000000     0.424000000000     0.0617046  
C        C      0.590800000000     0.019200000000     0.422500000000     0.0617046  
N        N      0.703400000000     0.891000000000     0.600200000000    -0.158531   
N        N      0.330500000000     0.535100000000     0.306700000000    -0.158531   
N        N      0.828000000000     0.500500000000     0.400200000000    -0.158531   
N        N      0.796600000000     0.109000000000     0.100200000000    -0.158531   
N        N      0.169500000000     0.464900000000     0.806700000000    -0.158531   
N        N      0.672000000000     0.499500000000     0.900200000000    -0.158531   
N        N      0.296600000000     0.391000000000     0.899800000000    -0.158531   
N        N      0.669500000000     0.035100000000     0.193300000000    -0.158531   
N        N      0.172000000000     0.000500000000     0.099800000000    -0.158531   
N        N      0.203400000000     0.609000000000     0.399800000000    -0.158531   
N        N      0.830500000000     0.964900000000     0.693300000000    -0.158531   
N        N      0.328000000000     0.999500000000     0.599800000000    -0.158531   
N        N      0.296600000000     0.109000000000     0.399800000000    -0.158531   
N        N      0.669500000000     0.464900000000     0.693300000000    -0.158531   
N        N      0.172000000000     0.499500000000     0.599800000000    -0.158531   
N        N      0.203400000000     0.891000000000     0.899800000000    -0.158531   
N        N      0.830500000000     0.535100000000     0.193300000000    -0.158531   
N        N      0.328000000000     0.500500000000     0.099800000000    -0.158531   
N        N      0.703400000000     0.609000000000     0.100200000000    -0.158531   
N        N      0.330500000000     0.964900000000     0.806700000000    -0.158531   
N        N      0.828000000000     0.999500000000     0.900200000000    -0.158531   
N        N      0.796600000000     0.391000000000     0.600200000000    -0.158531   
N        N      0.169500000000     0.035100000000     0.306700000000    -0.158531   
N        N      0.672000000000     0.000500000000     0.400200000000    -0.158531   
O        O      0.690000000000     0.680900000000     0.455100000000    -0.263551   
O        O      0.800600000000     0.619500000000     0.504800000000    -0.263551   
O        O      0.786000000000     0.616100000000     0.629000000000    -0.263551   
O        O      0.658800000000     0.573800000000     0.585600000000    -0.263551   
O        O      0.600700000000     0.503300000000     0.193200000000    -0.263551   
O        O      0.629300000000     0.644000000000     0.225300000000    -0.263551   
O        O      0.658300000000     0.515800000000     0.316300000000    -0.263551   
O        O      0.595800000000     0.621000000000     0.364900000000    -0.263551   
O        O      0.810000000000     0.319100000000     0.955100000000    -0.263551   
O        O      0.699400000000     0.380500000000     0.004800000000    -0.263551   
O        O      0.714000000000     0.383900000000     0.129000000000    -0.263551   
O        O      0.841200000000     0.426200000000     0.085600000000    -0.263551   
O        O      0.899300000000     0.496700000000     0.693200000000    -0.263551   
O        O      0.870700000000     0.356000000000     0.725300000000    -0.263551   
O        O      0.841700000000     0.484200000000     0.816300000000    -0.263551   
O        O      0.904200000000     0.379000000000     0.864900000000    -0.263551   
O        O      0.310000000000     0.180900000000     0.044900000000    -0.263551   
O        O      0.199400000000     0.119500000000     0.995200000000    -0.263551   
O        O      0.214000000000     0.116100000000     0.871000000000    -0.263551   
O        O      0.341200000000     0.073800000000     0.914400000000    -0.263551   
O        O      0.399300000000     0.003300000000     0.306800000000    -0.263551   
O        O      0.370700000000     0.144000000000     0.274700000000    -0.263551   
O        O      0.341700000000     0.015800000000     0.183700000000    -0.263551   
O        O      0.404200000000     0.121000000000     0.135100000000    -0.263551   
O        O      0.190000000000     0.819100000000     0.544900000000    -0.263551   
O        O      0.300600000000     0.880500000000     0.495200000000    -0.263551   
O        O      0.286000000000     0.883900000000     0.371000000000    -0.263551   
O        O      0.158800000000     0.926200000000     0.414400000000    -0.263551   
O        O      0.100700000000     0.996700000000     0.806800000000    -0.263551   
O        O      0.129300000000     0.856000000000     0.774700000000    -0.263551   
O        O      0.158300000000     0.984200000000     0.683700000000    -0.263551   
O        O      0.095800000000     0.879000000000     0.635100000000    -0.263551   
O        O      0.310000000000     0.319100000000     0.544900000000    -0.263551   
O        O      0.199400000000     0.380500000000     0.495200000000    -0.263551   
O        O      0.214000000000     0.383900000000     0.371000000000    -0.263551   
O        O      0.341200000000     0.426200000000     0.414400000000    -0.263551   
O        O      0.399300000000     0.496700000000     0.806800000000    -0.263551   
O        O      0.370700000000     0.356000000000     0.774700000000    -0.263551   
O        O      0.341700000000     0.484200000000     0.683700000000    -0.263551   
O        O      0.404200000000     0.379000000000     0.635100000000    -0.263551   
O        O      0.190000000000     0.680900000000     0.044900000000    -0.263551   
O        O      0.300600000000     0.619500000000     0.995200000000    -0.263551   
O        O      0.286000000000     0.616100000000     0.871000000000    -0.263551   
O        O      0.158800000000     0.573800000000     0.914400000000    -0.263551   
O        O      0.100700000000     0.503300000000     0.306800000000    -0.263551   
O        O      0.129300000000     0.644000000000     0.274700000000    -0.263551   
O        O      0.158300000000     0.515800000000     0.183700000000    -0.263551   
O        O      0.095800000000     0.621000000000     0.135100000000    -0.263551   
O        O      0.690000000000     0.819100000000     0.955100000000    -0.263551   
O        O      0.800600000000     0.880500000000     0.004800000000    -0.263551   
O        O      0.786000000000     0.883900000000     0.129000000000    -0.263551   
O        O      0.658800000000     0.926200000000     0.085600000000    -0.263551   
O        O      0.600700000000     0.996700000000     0.693200000000    -0.263551   
O        O      0.629300000000     0.856000000000     0.725300000000    -0.263551   
O        O      0.658300000000     0.984200000000     0.816300000000    -0.263551   
O        O      0.595800000000     0.879000000000     0.864900000000    -0.263551   
O        O      0.810000000000     0.180900000000     0.455100000000    -0.263551   
O        O      0.699400000000     0.119500000000     0.504800000000    -0.263551   
O        O      0.714000000000     0.116100000000     0.629000000000    -0.263551   
O        O      0.841200000000     0.073800000000     0.585600000000    -0.263551   
O        O      0.899300000000     0.003300000000     0.193200000000    -0.263551   
O        O      0.870700000000     0.144000000000     0.225300000000    -0.263551   
O        O      0.841700000000     0.015800000000     0.316300000000    -0.263551   
O        O      0.904200000000     0.121000000000     0.364900000000    -0.263551   


