data_DEPXAY_original

_audit_creation_method RASPA-1.0
_audit_creation_date 2022-1-29
_audit_author_name 'Felipe Lopes de Oliveira <felipe.lopes.oliveira@ibm.com>'

_cell_length_a    14.216
_cell_length_b    14.447
_cell_length_c    27.865
_cell_angle_alpha 90
_cell_angle_beta  90
_cell_angle_gamma 90
_cell_volume      5722.87

_symmetry_cell_setting          triclinic
_symmetry_space_group_name_Hall 'P 1'
_symmetry_space_group_name_H-M  'P 1'
_symmetry_Int_Tables_number     1

_symmetry_equiv_pos_as_xyz 'x,y,z'

loop_
_atom_site_label
_atom_site_type_symbol
_atom_site_fract_x
_atom_site_fract_y
_atom_site_fract_z
_atom_site_charge
Zn       Zn     0.209470000000     0.100070000000     0.098550000000     0.405714   
Zn       Zn     0.213080000000     0.483530000000     0.845020000000     0.405714   
Zn       Zn     0.290530000000     0.899930000000     0.598550000000     0.405714   
Zn       Zn     0.286920000000     0.516470000000     0.345020000000     0.405714   
Zn       Zn     0.790530000000     0.600070000000     0.401450000000     0.405714   
Zn       Zn     0.786920000000     0.983530000000     0.654980000000     0.405714   
Zn       Zn     0.709470000000     0.399930000000     0.901450000000     0.405714   
Zn       Zn     0.713080000000     0.016470000000     0.154980000000     0.405714   
Zn       Zn     0.790530000000     0.899930000000     0.901450000000     0.405714   
Zn       Zn     0.786920000000     0.516470000000     0.154980000000     0.405714   
Zn       Zn     0.709470000000     0.100070000000     0.401450000000     0.405714   
Zn       Zn     0.713080000000     0.483530000000     0.654980000000     0.405714   
Zn       Zn     0.209470000000     0.399930000000     0.598550000000     0.405714   
Zn       Zn     0.213080000000     0.016470000000     0.345020000000     0.405714   
Zn       Zn     0.290530000000     0.600070000000     0.098550000000     0.405714   
Zn       Zn     0.286920000000     0.983530000000     0.845020000000     0.405714   
H        H      0.212900000000     0.281800000000     0.852100000000     0.0553502  
H        H      0.200000000000     0.355200000000     0.011300000000     0.0553502  
H        H      0.193400000000     0.467200000000     0.953200000000     0.0553502  
H        H      0.917000000000     0.053400000000     0.139400000000     0.0553502  
H        H      0.902500000000     0.054700000000     0.303600000000     0.0553502  
H        H      0.769800000000     0.037000000000     0.257800000000     0.0553502  
H        H      0.287100000000     0.718200000000     0.352100000000     0.0553502  
H        H      0.300000000000     0.644800000000     0.511300000000     0.0553502  
H        H      0.306600000000     0.532800000000     0.453200000000     0.0553502  
H        H      0.583000000000     0.946600000000     0.639400000000     0.0553502  
H        H      0.597500000000     0.945300000000     0.803600000000     0.0553502  
H        H      0.730200000000     0.963000000000     0.757800000000     0.0553502  
H        H      0.787100000000     0.781800000000     0.647900000000     0.0553502  
H        H      0.800000000000     0.855200000000     0.488700000000     0.0553502  
H        H      0.806600000000     0.967200000000     0.546800000000     0.0553502  
H        H      0.083000000000     0.553400000000     0.360600000000     0.0553502  
H        H      0.097500000000     0.554700000000     0.196400000000     0.0553502  
H        H      0.230200000000     0.537000000000     0.242200000000     0.0553502  
H        H      0.712900000000     0.218200000000     0.147900000000     0.0553502  
H        H      0.700000000000     0.144800000000     0.988700000000     0.0553502  
H        H      0.693400000000     0.032800000000     0.046800000000     0.0553502  
H        H      0.417000000000     0.446600000000     0.860600000000     0.0553502  
H        H      0.402500000000     0.445300000000     0.696400000000     0.0553502  
H        H      0.269800000000     0.463000000000     0.742200000000     0.0553502  
H        H      0.787100000000     0.718200000000     0.147900000000     0.0553502  
H        H      0.800000000000     0.644800000000     0.988700000000     0.0553502  
H        H      0.806600000000     0.532800000000     0.046800000000     0.0553502  
H        H      0.083000000000     0.946600000000     0.860600000000     0.0553502  
H        H      0.097500000000     0.945300000000     0.696400000000     0.0553502  
H        H      0.230200000000     0.963000000000     0.742200000000     0.0553502  
H        H      0.712900000000     0.281800000000     0.647900000000     0.0553502  
H        H      0.700000000000     0.355200000000     0.488700000000     0.0553502  
H        H      0.693400000000     0.467200000000     0.546800000000     0.0553502  
H        H      0.417000000000     0.053400000000     0.360600000000     0.0553502  
H        H      0.402500000000     0.054700000000     0.196400000000     0.0553502  
H        H      0.269800000000     0.037000000000     0.242200000000     0.0553502  
H        H      0.212900000000     0.218200000000     0.352100000000     0.0553502  
H        H      0.200000000000     0.144800000000     0.511300000000     0.0553502  
H        H      0.193400000000     0.032800000000     0.453200000000     0.0553502  
H        H      0.917000000000     0.446600000000     0.639400000000     0.0553502  
H        H      0.902500000000     0.445300000000     0.803600000000     0.0553502  
H        H      0.769800000000     0.463000000000     0.757800000000     0.0553502  
H        H      0.287100000000     0.781800000000     0.852100000000     0.0553502  
H        H      0.300000000000     0.855200000000     0.011300000000     0.0553502  
H        H      0.306600000000     0.967200000000     0.953200000000     0.0553502  
H        H      0.583000000000     0.553400000000     0.139400000000     0.0553502  
H        H      0.597500000000     0.554700000000     0.303600000000     0.0553502  
H        H      0.730200000000     0.537000000000     0.257800000000     0.0553502  
C        C      0.211200000000     0.296600000000     0.884600000000     0.0875307  
C        C      0.216500000000     0.224700000000     0.917800000000     0.0875307  
C        C      0.215600000000     0.247500000000     0.966700000000     0.0875307  
C        C      0.204500000000     0.338500000000     0.979100000000     0.0875307  
C        C      0.199700000000     0.405600000000     0.944000000000     0.0875307  
C        C      0.220700000000     0.126400000000     0.899700000000     0.0875307  
C        C      0.236600000000     0.174700000000     0.004700000000     0.0875307  
C        C      0.914600000000     0.053300000000     0.172800000000     0.0875307  
C        C      0.998000000000     0.065000000000     0.198200000000     0.0875307  
C        C      0.994600000000     0.064900000000     0.248400000000     0.0875307  
C        C      0.907200000000     0.054400000000     0.270300000000     0.0875307  
C        C      0.827600000000     0.043500000000     0.242600000000     0.0875307  
C        C      0.088800000000     0.069800000000     0.170800000000     0.0875307  
C        C      0.082100000000     0.079400000000     0.278300000000     0.0875307  
C        C      0.288800000000     0.703400000000     0.384600000000     0.0875307  
C        C      0.283500000000     0.775300000000     0.417800000000     0.0875307  
C        C      0.284400000000     0.752500000000     0.466700000000     0.0875307  
C        C      0.295500000000     0.661500000000     0.479100000000     0.0875307  
C        C      0.300300000000     0.594400000000     0.444000000000     0.0875307  
C        C      0.279300000000     0.873600000000     0.399700000000     0.0875307  
C        C      0.263400000000     0.825300000000     0.504700000000     0.0875307  
C        C      0.585400000000     0.946700000000     0.672800000000     0.0875307  
C        C      0.502000000000     0.935000000000     0.698200000000     0.0875307  
C        C      0.505400000000     0.935100000000     0.748400000000     0.0875307  
C        C      0.592800000000     0.945600000000     0.770300000000     0.0875307  
C        C      0.672400000000     0.956500000000     0.742600000000     0.0875307  
C        C      0.411200000000     0.930200000000     0.670800000000     0.0875307  
C        C      0.417900000000     0.920600000000     0.778300000000     0.0875307  
C        C      0.788800000000     0.796600000000     0.615400000000     0.0875307  
C        C      0.783500000000     0.724700000000     0.582200000000     0.0875307  
C        C      0.784400000000     0.747500000000     0.533300000000     0.0875307  
C        C      0.795500000000     0.838500000000     0.520900000000     0.0875307  
C        C      0.800300000000     0.905600000000     0.556000000000     0.0875307  
C        C      0.779300000000     0.626400000000     0.600300000000     0.0875307  
C        C      0.763400000000     0.674700000000     0.495300000000     0.0875307  
C        C      0.085400000000     0.553300000000     0.327200000000     0.0875307  
C        C      0.002000000000     0.565000000000     0.301800000000     0.0875307  
C        C      0.005400000000     0.564900000000     0.251600000000     0.0875307  
C        C      0.092800000000     0.554400000000     0.229700000000     0.0875307  
C        C      0.172400000000     0.543500000000     0.257400000000     0.0875307  
C        C      0.911200000000     0.569800000000     0.329200000000     0.0875307  
C        C      0.917900000000     0.579400000000     0.221700000000     0.0875307  
C        C      0.711200000000     0.203400000000     0.115400000000     0.0875307  
C        C      0.716500000000     0.275300000000     0.082200000000     0.0875307  
C        C      0.715600000000     0.252500000000     0.033300000000     0.0875307  
C        C      0.704500000000     0.161500000000     0.020900000000     0.0875307  
C        C      0.699700000000     0.094400000000     0.056000000000     0.0875307  
C        C      0.720700000000     0.373600000000     0.100300000000     0.0875307  
C        C      0.736600000000     0.325300000000     0.995300000000     0.0875307  
C        C      0.414600000000     0.446700000000     0.827200000000     0.0875307  
C        C      0.498000000000     0.435000000000     0.801800000000     0.0875307  
C        C      0.494600000000     0.435100000000     0.751600000000     0.0875307  
C        C      0.407200000000     0.445600000000     0.729700000000     0.0875307  
C        C      0.327600000000     0.456500000000     0.757400000000     0.0875307  
C        C      0.588800000000     0.430200000000     0.829200000000     0.0875307  
C        C      0.582100000000     0.420600000000     0.721700000000     0.0875307  
C        C      0.788800000000     0.703400000000     0.115400000000     0.0875307  
C        C      0.783500000000     0.775300000000     0.082200000000     0.0875307  
C        C      0.784400000000     0.752500000000     0.033300000000     0.0875307  
C        C      0.795500000000     0.661500000000     0.020900000000     0.0875307  
C        C      0.800300000000     0.594400000000     0.056000000000     0.0875307  
C        C      0.779300000000     0.873600000000     0.100300000000     0.0875307  
C        C      0.763400000000     0.825300000000     0.995300000000     0.0875307  
C        C      0.085400000000     0.946700000000     0.827200000000     0.0875307  
C        C      0.002000000000     0.935000000000     0.801800000000     0.0875307  
C        C      0.005400000000     0.935100000000     0.751600000000     0.0875307  
C        C      0.092800000000     0.945600000000     0.729700000000     0.0875307  
C        C      0.172400000000     0.956500000000     0.757400000000     0.0875307  
C        C      0.911200000000     0.930200000000     0.829200000000     0.0875307  
C        C      0.917900000000     0.920600000000     0.721700000000     0.0875307  
C        C      0.711200000000     0.296600000000     0.615400000000     0.0875307  
C        C      0.716500000000     0.224700000000     0.582200000000     0.0875307  
C        C      0.715600000000     0.247500000000     0.533300000000     0.0875307  
C        C      0.704500000000     0.338500000000     0.520900000000     0.0875307  
C        C      0.699700000000     0.405600000000     0.556000000000     0.0875307  
C        C      0.720700000000     0.126400000000     0.600300000000     0.0875307  
C        C      0.736600000000     0.174700000000     0.495300000000     0.0875307  
C        C      0.414600000000     0.053300000000     0.327200000000     0.0875307  
C        C      0.498000000000     0.065000000000     0.301800000000     0.0875307  
C        C      0.494600000000     0.064900000000     0.251600000000     0.0875307  
C        C      0.407200000000     0.054400000000     0.229700000000     0.0875307  
C        C      0.327600000000     0.043500000000     0.257400000000     0.0875307  
C        C      0.588800000000     0.069800000000     0.329200000000     0.0875307  
C        C      0.582100000000     0.079400000000     0.221700000000     0.0875307  
C        C      0.211200000000     0.203400000000     0.384600000000     0.0875307  
C        C      0.216500000000     0.275300000000     0.417800000000     0.0875307  
C        C      0.215600000000     0.252500000000     0.466700000000     0.0875307  
C        C      0.204500000000     0.161500000000     0.479100000000     0.0875307  
C        C      0.199700000000     0.094400000000     0.444000000000     0.0875307  
C        C      0.220700000000     0.373600000000     0.399700000000     0.0875307  
C        C      0.236600000000     0.325300000000     0.504700000000     0.0875307  
C        C      0.914600000000     0.446700000000     0.672800000000     0.0875307  
C        C      0.998000000000     0.435000000000     0.698200000000     0.0875307  
C        C      0.994600000000     0.435100000000     0.748400000000     0.0875307  
C        C      0.907200000000     0.445600000000     0.770300000000     0.0875307  
C        C      0.827600000000     0.456500000000     0.742600000000     0.0875307  
C        C      0.088800000000     0.430200000000     0.670800000000     0.0875307  
C        C      0.082100000000     0.420600000000     0.778300000000     0.0875307  
C        C      0.288800000000     0.796600000000     0.884600000000     0.0875307  
C        C      0.283500000000     0.724700000000     0.917800000000     0.0875307  
C        C      0.284400000000     0.747500000000     0.966700000000     0.0875307  
C        C      0.295500000000     0.838500000000     0.979100000000     0.0875307  
C        C      0.300300000000     0.905600000000     0.944000000000     0.0875307  
C        C      0.279300000000     0.626400000000     0.899700000000     0.0875307  
C        C      0.263400000000     0.674700000000     0.004700000000     0.0875307  
C        C      0.585400000000     0.553300000000     0.172800000000     0.0875307  
C        C      0.502000000000     0.565000000000     0.198200000000     0.0875307  
C        C      0.505400000000     0.564900000000     0.248400000000     0.0875307  
C        C      0.592800000000     0.554400000000     0.270300000000     0.0875307  
C        C      0.672400000000     0.543500000000     0.242600000000     0.0875307  
C        C      0.411200000000     0.569800000000     0.170800000000     0.0875307  
C        C      0.417900000000     0.579400000000     0.278300000000     0.0875307  
N        N      0.203900000000     0.385500000000     0.897000000000    -0.15269    
N        N      0.830700000000     0.041800000000     0.194190000000    -0.15269    
N        N      0.296100000000     0.614500000000     0.397000000000    -0.15269    
N        N      0.669300000000     0.958200000000     0.694190000000    -0.15269    
N        N      0.796100000000     0.885500000000     0.603000000000    -0.15269    
N        N      0.169300000000     0.541800000000     0.305810000000    -0.15269    
N        N      0.703900000000     0.114500000000     0.103000000000    -0.15269    
N        N      0.330700000000     0.458200000000     0.805810000000    -0.15269    
N        N      0.796100000000     0.614500000000     0.103000000000    -0.15269    
N        N      0.169300000000     0.958200000000     0.805810000000    -0.15269    
N        N      0.703900000000     0.385500000000     0.603000000000    -0.15269    
N        N      0.330700000000     0.041800000000     0.305810000000    -0.15269    
N        N      0.203900000000     0.114500000000     0.397000000000    -0.15269    
N        N      0.830700000000     0.458200000000     0.694190000000    -0.15269    
N        N      0.296100000000     0.885500000000     0.897000000000    -0.15269    
N        N      0.669300000000     0.541800000000     0.194190000000    -0.15269    
O        O      0.286100000000     0.109400000000     0.869800000000    -0.257947   
O        O      0.161400000000     0.070700000000     0.913520000000    -0.257947   
O        O      0.296100000000     0.116000000000     0.996140000000    -0.257947   
O        O      0.189500000000     0.183200000000     0.042770000000    -0.257947   
O        O      0.101300000000     0.010000000000     0.305330000000    -0.257947   
O        O      0.124700000000     0.151900000000     0.276550000000    -0.257947   
O        O      0.158300000000     0.026700000000     0.185660000000    -0.257947   
O        O      0.088200000000     0.119100000000     0.133110000000    -0.257947   
O        O      0.213900000000     0.890600000000     0.369800000000    -0.257947   
O        O      0.338600000000     0.929300000000     0.413520000000    -0.257947   
O        O      0.203900000000     0.884000000000     0.496140000000    -0.257947   
O        O      0.310500000000     0.816800000000     0.542770000000    -0.257947   
O        O      0.398700000000     0.990000000000     0.805330000000    -0.257947   
O        O      0.375300000000     0.848100000000     0.776550000000    -0.257947   
O        O      0.341700000000     0.973300000000     0.685660000000    -0.257947   
O        O      0.411800000000     0.880900000000     0.633110000000    -0.257947   
O        O      0.713900000000     0.609400000000     0.630200000000    -0.257947   
O        O      0.838600000000     0.570700000000     0.586480000000    -0.257947   
O        O      0.703900000000     0.616000000000     0.503860000000    -0.257947   
O        O      0.810500000000     0.683200000000     0.457230000000    -0.257947   
O        O      0.898700000000     0.510000000000     0.194670000000    -0.257947   
O        O      0.875300000000     0.651900000000     0.223450000000    -0.257947   
O        O      0.841700000000     0.526700000000     0.314340000000    -0.257947   
O        O      0.911800000000     0.619100000000     0.366890000000    -0.257947   
O        O      0.786100000000     0.390600000000     0.130200000000    -0.257947   
O        O      0.661400000000     0.429300000000     0.086480000000    -0.257947   
O        O      0.796100000000     0.384000000000     0.003860000000    -0.257947   
O        O      0.689500000000     0.316800000000     0.957230000000    -0.257947   
O        O      0.601300000000     0.490000000000     0.694670000000    -0.257947   
O        O      0.624700000000     0.348100000000     0.723450000000    -0.257947   
O        O      0.658300000000     0.473300000000     0.814340000000    -0.257947   
O        O      0.588200000000     0.380900000000     0.866890000000    -0.257947   
O        O      0.713900000000     0.890600000000     0.130200000000    -0.257947   
O        O      0.838600000000     0.929300000000     0.086480000000    -0.257947   
O        O      0.703900000000     0.884000000000     0.003860000000    -0.257947   
O        O      0.810500000000     0.816800000000     0.957230000000    -0.257947   
O        O      0.898700000000     0.990000000000     0.694670000000    -0.257947   
O        O      0.875300000000     0.848100000000     0.723450000000    -0.257947   
O        O      0.841700000000     0.973300000000     0.814340000000    -0.257947   
O        O      0.911800000000     0.880900000000     0.866890000000    -0.257947   
O        O      0.786100000000     0.109400000000     0.630200000000    -0.257947   
O        O      0.661400000000     0.070700000000     0.586480000000    -0.257947   
O        O      0.796100000000     0.116000000000     0.503860000000    -0.257947   
O        O      0.689500000000     0.183200000000     0.457230000000    -0.257947   
O        O      0.601300000000     0.010000000000     0.194670000000    -0.257947   
O        O      0.624700000000     0.151900000000     0.223450000000    -0.257947   
O        O      0.658300000000     0.026700000000     0.314340000000    -0.257947   
O        O      0.588200000000     0.119100000000     0.366890000000    -0.257947   
O        O      0.286100000000     0.390600000000     0.369800000000    -0.257947   
O        O      0.161400000000     0.429300000000     0.413520000000    -0.257947   
O        O      0.296100000000     0.384000000000     0.496140000000    -0.257947   
O        O      0.189500000000     0.316800000000     0.542770000000    -0.257947   
O        O      0.101300000000     0.490000000000     0.805330000000    -0.257947   
O        O      0.124700000000     0.348100000000     0.776550000000    -0.257947   
O        O      0.158300000000     0.473300000000     0.685660000000    -0.257947   
O        O      0.088200000000     0.380900000000     0.633110000000    -0.257947   
O        O      0.213900000000     0.609400000000     0.869800000000    -0.257947   
O        O      0.338600000000     0.570700000000     0.913520000000    -0.257947   
O        O      0.203900000000     0.616000000000     0.996140000000    -0.257947   
O        O      0.310500000000     0.683200000000     0.042770000000    -0.257947   
O        O      0.398700000000     0.510000000000     0.305330000000    -0.257947   
O        O      0.375300000000     0.651900000000     0.276550000000    -0.257947   
O        O      0.341700000000     0.526700000000     0.185660000000    -0.257947   
O        O      0.411800000000     0.619100000000     0.133110000000    -0.257947   


