data_DOGZIJ_original

_audit_creation_method RASPA-1.0
_audit_creation_date 2022-1-30
_audit_author_name 'Felipe Lopes de Oliveira <felipe.lopes.oliveira@ibm.com>'

_cell_length_a    8.473
_cell_length_b    10.154
_cell_length_c    13.397
_cell_angle_alpha 68.21
_cell_angle_beta  78.64
_cell_angle_gamma 77.46
_cell_volume      1036.08

_symmetry_cell_setting          triclinic
_symmetry_space_group_name_Hall 'P 1'
_symmetry_space_group_name_H-M  'P 1'
_symmetry_Int_Tables_number     1

_symmetry_equiv_pos_as_xyz 'x,y,z'

loop_
_atom_site_label
_atom_site_type_symbol
_atom_site_fract_x
_atom_site_fract_y
_atom_site_fract_z
_atom_site_charge
Zn       Zn     0.943370000000     0.435150000000     0.158220000000     0.453131   
Zn       Zn     0.056630000000     0.564850000000     0.841780000000     0.453131   
H        H      0.255200000000     0.252300000000     0.082500000000     0.115326   
H        H      0.461500000000     0.229100000000     0.323700000000     0.115326   
H        H      0.193000000000     0.373900000000     0.330600000000     0.115326   
H        H      0.638800000000     0.186400000000     0.114500000000     0.115326   
H        H      0.598000000000     0.050000000000     0.210900000000     0.115326   
H        H      0.433100000000     0.918700000000     0.269600000000     0.115326   
H        H      0.344500000000     0.811800000000     0.249800000000     0.115326   
H        H      0.532500000000     0.775500000000     0.256200000000     0.115326   
H        H      0.586300000000     0.321400000000     0.973000000000     0.115326   
H        H      0.692300000000     0.288800000000     0.872400000000     0.115326   
H        H      0.506500000000     0.351500000000     0.869000000000     0.115326   
H        H      0.923600000000     0.040000000000     0.163300000000     0.115326   
H        H      0.070400000000     0.185900000000     0.842800000000     0.115326   
H        H      0.752300000000     0.532600000000     0.518900000000     0.115326   
H        H      0.465800000000     0.457700000000     0.348900000000     0.115326   
H        H      0.744800000000     0.747700000000     0.917500000000     0.115326   
H        H      0.538500000000     0.770900000000     0.676300000000     0.115326   
H        H      0.807000000000     0.626100000000     0.669400000000     0.115326   
H        H      0.361200000000     0.813600000000     0.885500000000     0.115326   
H        H      0.402000000000     0.950000000000     0.789100000000     0.115326   
H        H      0.566900000000     0.081300000000     0.730400000000     0.115326   
H        H      0.655500000000     0.188200000000     0.750200000000     0.115326   
H        H      0.467500000000     0.224500000000     0.743800000000     0.115326   
H        H      0.413700000000     0.678600000000     0.027000000000     0.115326   
H        H      0.307700000000     0.711200000000     0.127600000000     0.115326   
H        H      0.493500000000     0.648500000000     0.131000000000     0.115326   
H        H      0.076400000000     0.960000000000     0.836700000000     0.115326   
H        H      0.929600000000     0.814100000000     0.157200000000     0.115326   
H        H      0.247700000000     0.467400000000     0.481100000000     0.115326   
H        H      0.534200000000     0.542300000000     0.651100000000     0.115326   
C        C      0.273500000000     0.266200000000     0.143800000000    -0.0418302  
C        C      0.387200000000     0.252200000000     0.274800000000    -0.0418302  
C        C      0.238500000000     0.332100000000     0.278200000000    -0.0418302  
C        C      0.556600000000     0.126200000000     0.149600000000    -0.0418302  
C        C      0.523000000000     0.062600000000     0.071050000000    -0.0418302  
C        C      0.475900000000     0.927100000000     0.112220000000    -0.0418302  
C        C      0.545600000000     0.137300000000     0.959600000000    -0.0418302  
C        C      0.443500000000     0.851400000000     0.232900000000    -0.0418302  
C        C      0.586500000000     0.288700000000     0.914300000000    -0.0418302  
C        C      0.986500000000     0.281960000000     0.007540000000    -0.0418302  
C        C      0.993900000000     0.134840000000     0.004040000000    -0.0418302  
C        C      0.953700000000     0.023680000000     0.097730000000    -0.0418302  
C        C      0.041800000000     0.111400000000     0.905550000000    -0.0418302  
C        C      0.772200000000     0.488400000000     0.333440000000    -0.0418302  
C        C      0.631500000000     0.493500000000     0.420350000000    -0.0418302  
C        C      0.650900000000     0.519300000000     0.511000000000    -0.0418302  
C        C      0.480100000000     0.474700000000     0.409890000000    -0.0418302  
C        C      0.726500000000     0.733800000000     0.856200000000    -0.0418302  
C        C      0.612800000000     0.747800000000     0.725200000000    -0.0418302  
C        C      0.761500000000     0.667900000000     0.721800000000    -0.0418302  
C        C      0.443400000000     0.873800000000     0.850400000000    -0.0418302  
C        C      0.477000000000     0.937400000000     0.928950000000    -0.0418302  
C        C      0.524100000000     0.072900000000     0.887780000000    -0.0418302  
C        C      0.454400000000     0.862700000000     0.040400000000    -0.0418302  
C        C      0.556500000000     0.148600000000     0.767100000000    -0.0418302  
C        C      0.413500000000     0.711300000000     0.085700000000    -0.0418302  
C        C      0.013500000000     0.718040000000     0.992460000000    -0.0418302  
C        C      0.006100000000     0.865160000000     0.995960000000    -0.0418302  
C        C      0.046300000000     0.976320000000     0.902270000000    -0.0418302  
C        C      0.958200000000     0.888600000000     0.094450000000    -0.0418302  
C        C      0.227800000000     0.511600000000     0.666560000000    -0.0418302  
C        C      0.368500000000     0.506500000000     0.579650000000    -0.0418302  
C        C      0.349100000000     0.480700000000     0.489000000000    -0.0418302  
C        C      0.519900000000     0.525300000000     0.590110000000    -0.0418302  
N        N      0.165700000000     0.342470000000     0.194890000000    -0.144739   
N        N      0.408300000000     0.212000000000     0.187630000000    -0.144739   
N        N      0.834300000000     0.657530000000     0.805110000000    -0.144739   
N        N      0.591700000000     0.788000000000     0.812370000000    -0.144739   
O        O      0.897130000000     0.312290000000     0.085650000000    -0.295609   
O        O      0.073410000000     0.363520000000     0.933830000000    -0.295609   
O        O      0.755450000000     0.428940000000     0.267840000000    -0.295609   
O        O      0.896000000000     0.538390000000     0.326940000000    -0.295609   
O        O      0.102870000000     0.687710000000     0.914350000000    -0.295609   
O        O      0.926590000000     0.636480000000     0.066170000000    -0.295609   
O        O      0.244550000000     0.571060000000     0.732160000000    -0.295609   
O        O      0.104000000000     0.461610000000     0.673060000000    -0.295609   


