data_DONNAW01_original

_audit_creation_method RASPA-1.0
_audit_creation_date 2022-1-28
_audit_author_name 'Felipe Lopes de Oliveira <felipe.lopes.oliveira@ibm.com>'

_cell_length_a    6.74748
_cell_length_b    11.1501
_cell_length_c    11.1501
_cell_angle_alpha 102.874
_cell_angle_beta  107.612
_cell_angle_gamma 107.612
_cell_volume      715.001

_symmetry_cell_setting          triclinic
_symmetry_space_group_name_Hall 'P 1'
_symmetry_space_group_name_H-M  'P 1'
_symmetry_Int_Tables_number     1

_symmetry_equiv_pos_as_xyz 'x,y,z'

loop_
_atom_site_label
_atom_site_type_symbol
_atom_site_fract_x
_atom_site_fract_y
_atom_site_fract_z
_atom_site_charge
Ga       Ga     0.000000000000     0.000000000000     0.000000000000     4.03004    
Ga       Ga     0.500000000000     0.000000000000     0.000000000000     4.03004    
H        H      0.232800000000     0.987000000000     0.610800000000     0.0343762  
H        H      0.105700000000     0.968300000000     0.372500000000     0.0343762  
H        H      0.865000000000     0.610800000000     0.987000000000     0.0343762  
H        H      0.735100000000     0.372500000000     0.968300000000     0.0343762  
H        H      0.767200000000     0.013000000000     0.389200000000     0.0343762  
H        H      0.894300000000     0.031700000000     0.627500000000     0.0343762  
H        H      0.135000000000     0.389200000000     0.013000000000     0.0343762  
H        H      0.264900000000     0.627500000000     0.031700000000     0.0343762  
C        C      0.336300000000     0.973830000000     0.556370000000     0.133596   
C        C      0.272100000000     0.973450000000     0.425550000000     0.133596   
C        C      0.693900000000     0.556370000000     0.973830000000     0.133596   
C        C      0.626900000000     0.425550000000     0.973450000000     0.133596   
C        C      0.663700000000     0.026170000000     0.443630000000     0.133596   
C        C      0.727900000000     0.026550000000     0.574450000000     0.133596   
C        C      0.306100000000     0.443630000000     0.026170000000     0.133596   
C        C      0.373100000000     0.574450000000     0.026550000000     0.133596   
C        C      0.541400000000     0.963260000000     0.619540000000     0.133596   
C        C      0.610000000000     0.960930000000     0.759070000000     0.133596   
C        C      0.421200000000     0.979020000000     0.363380000000     0.133596   
C        C      0.360800000000     0.993180000000     0.228420000000     0.133596   
C        C      0.541400000000     0.619540000000     0.963260000000     0.133596   
C        C      0.610000000000     0.759070000000     0.960930000000     0.133596   
C        C      0.421200000000     0.363380000000     0.979020000000     0.133596   
C        C      0.360800000000     0.228420000000     0.993180000000     0.133596   
O        O      0.802840000000     0.959520000000     0.812160000000    -1.04726    
O        O      0.506000000000     0.999110000000     0.178090000000    -1.04726    
O        O      0.468840000000     0.812160000000     0.959520000000    -1.04726    
O        O      0.171200000000     0.178090000000     0.999110000000    -1.04726    
O        O      0.197160000000     0.040480000000     0.187840000000    -1.04726    
O        O      0.494000000000     0.000890000000     0.821910000000    -1.04726    
O        O      0.531160000000     0.187840000000     0.040480000000    -1.04726    
O        O      0.828800000000     0.821910000000     0.000890000000    -1.04726    
O        O      0.823400000000     0.079800000000     0.067000000000    -1.04726    
O        O      0.176600000000     0.920200000000     0.933000000000    -1.04726    


