data_DOTTUC_original

_audit_creation_method RASPA-1.0
_audit_creation_date 2022-1-30
_audit_author_name 'Felipe Lopes de Oliveira <felipe.lopes.oliveira@ibm.com>'

_cell_length_a    12.9913
_cell_length_b    12.9913
_cell_length_c    17.3911
_cell_angle_alpha 90
_cell_angle_beta  90
_cell_angle_gamma 120
_cell_volume      2541.93

_symmetry_cell_setting          triclinic
_symmetry_space_group_name_Hall 'P 1'
_symmetry_space_group_name_H-M  'P 1'
_symmetry_Int_Tables_number     1

_symmetry_equiv_pos_as_xyz 'x,y,z'

loop_
_atom_site_label
_atom_site_type_symbol
_atom_site_fract_x
_atom_site_fract_y
_atom_site_fract_z
_atom_site_charge
In       In     0.377100000000     0.000000000000     0.500000000000     2.29994    
In       In     0.622900000000     0.622900000000     0.833330000000     2.29994    
In       In     0.000000000000     0.377100000000     0.166670000000     2.29994    
H        H      0.563100000000     0.575700000000     0.569600000000     0.200699   
H        H      0.340900000000     0.423500000000     0.641400000000     0.200699   
H        H      0.367700000000     0.520200000000     0.577400000000     0.200699   
H        H      0.330900000000     0.391900000000     0.487600000000     0.200699   
H        H      0.289500000000     0.293100000000     0.550900000000     0.200699   
H        H      0.452300000000     0.375700000000     0.398100000000     0.200699   
H        H      0.582400000000     0.421300000000     0.427100000000     0.200699   
H        H      0.520600000000     0.496600000000     0.442600000000     0.200699   
H        H      0.717900000000     0.490200000000     0.613400000000     0.200699   
H        H      0.695300000000     0.513800000000     0.528300000000     0.200699   
H        H      0.680600000000     0.390400000000     0.551200000000     0.200699   
H        H      0.573100000000     0.366100000000     0.689700000000     0.200699   
H        H      0.533700000000     0.264200000000     0.628800000000     0.200699   
H        H      0.439800000000     0.293000000000     0.663900000000     0.200699   
H        H      0.012600000000     0.436900000000     0.902930000000     0.200699   
H        H      0.082600000000     0.659100000000     0.974730000000     0.200699   
H        H      0.152500000000     0.632300000000     0.910730000000     0.200699   
H        H      0.061000000000     0.669100000000     0.820930000000     0.200699   
H        H      0.003600000000     0.710500000000     0.884230000000     0.200699   
H        H      0.923400000000     0.547700000000     0.731430000000     0.200699   
H        H      0.838900000000     0.417600000000     0.760430000000     0.200699   
H        H      0.976000000000     0.479400000000     0.775930000000     0.200699   
H        H      0.772300000000     0.282100000000     0.946730000000     0.200699   
H        H      0.818500000000     0.304700000000     0.861630000000     0.200699   
H        H      0.709800000000     0.319400000000     0.884530000000     0.200699   
H        H      0.793000000000     0.426900000000     0.023030000000     0.200699   
H        H      0.730500000000     0.466300000000     0.962130000000     0.200699   
H        H      0.853200000000     0.560200000000     0.997230000000     0.200699   
H        H      0.424300000000     0.987400000000     0.236270000000     0.200699   
H        H      0.576500000000     0.917400000000     0.308070000000     0.200699   
H        H      0.479800000000     0.847500000000     0.244070000000     0.200699   
H        H      0.608100000000     0.939000000000     0.154270000000     0.200699   
H        H      0.706900000000     0.996400000000     0.217570000000     0.200699   
H        H      0.624300000000     0.076600000000     0.064770000000     0.200699   
H        H      0.578700000000     0.161100000000     0.093770000000     0.200699   
H        H      0.503400000000     0.024000000000     0.109270000000     0.200699   
H        H      0.509800000000     0.227700000000     0.280070000000     0.200699   
H        H      0.486200000000     0.181500000000     0.194970000000     0.200699   
H        H      0.609600000000     0.290200000000     0.217870000000     0.200699   
H        H      0.633900000000     0.207000000000     0.356370000000     0.200699   
H        H      0.735800000000     0.269500000000     0.295470000000     0.200699   
H        H      0.707000000000     0.146800000000     0.330570000000     0.200699   
H        H      0.987400000000     0.424300000000     0.430400000000     0.200699   
H        H      0.917400000000     0.576500000000     0.358600000000     0.200699   
H        H      0.847500000000     0.479800000000     0.422600000000     0.200699   
H        H      0.939000000000     0.608100000000     0.512400000000     0.200699   
H        H      0.996400000000     0.706900000000     0.449100000000     0.200699   
H        H      0.076600000000     0.624300000000     0.601900000000     0.200699   
H        H      0.161100000000     0.578700000000     0.572900000000     0.200699   
H        H      0.024000000000     0.503400000000     0.557400000000     0.200699   
H        H      0.227700000000     0.509800000000     0.386600000000     0.200699   
H        H      0.181500000000     0.486200000000     0.471700000000     0.200699   
H        H      0.290200000000     0.609600000000     0.448800000000     0.200699   
H        H      0.207000000000     0.633900000000     0.310300000000     0.200699   
H        H      0.269500000000     0.735800000000     0.371200000000     0.200699   
H        H      0.146800000000     0.707000000000     0.336100000000     0.200699   
H        H      0.575700000000     0.563100000000     0.097070000000     0.200699   
H        H      0.423500000000     0.340900000000     0.025270000000     0.200699   
H        H      0.520200000000     0.367700000000     0.089270000000     0.200699   
H        H      0.391900000000     0.330900000000     0.179070000000     0.200699   
H        H      0.293100000000     0.289500000000     0.115770000000     0.200699   
H        H      0.375700000000     0.452300000000     0.268570000000     0.200699   
H        H      0.421300000000     0.582400000000     0.239570000000     0.200699   
H        H      0.496600000000     0.520600000000     0.224070000000     0.200699   
H        H      0.490200000000     0.717900000000     0.053270000000     0.200699   
H        H      0.513800000000     0.695300000000     0.138370000000     0.200699   
H        H      0.390400000000     0.680600000000     0.115470000000     0.200699   
H        H      0.366100000000     0.573100000000     0.976970000000     0.200699   
H        H      0.264200000000     0.533700000000     0.037870000000     0.200699   
H        H      0.293000000000     0.439800000000     0.002770000000     0.200699   
H        H      0.436900000000     0.012600000000     0.763730000000     0.200699   
H        H      0.659100000000     0.082600000000     0.691930000000     0.200699   
H        H      0.632300000000     0.152500000000     0.755930000000     0.200699   
H        H      0.669100000000     0.061000000000     0.845730000000     0.200699   
H        H      0.710500000000     0.003600000000     0.782430000000     0.200699   
H        H      0.547700000000     0.923400000000     0.935230000000     0.200699   
H        H      0.417600000000     0.838900000000     0.906230000000     0.200699   
H        H      0.479400000000     0.976000000000     0.890730000000     0.200699   
H        H      0.282100000000     0.772300000000     0.719930000000     0.200699   
H        H      0.304700000000     0.818500000000     0.805030000000     0.200699   
H        H      0.319400000000     0.709800000000     0.782130000000     0.200699   
H        H      0.426900000000     0.793000000000     0.643630000000     0.200699   
H        H      0.466300000000     0.730500000000     0.704530000000     0.200699   
H        H      0.560200000000     0.853200000000     0.669430000000     0.200699   
H        H      0.989400000000     0.831600000000     0.782600000000     0.200699   
H        H      0.068400000000     0.970200000000     0.788200000000     0.200699   
H        H      0.120400000000     0.895400000000     0.751900000000     0.200699   
H        H      0.065300000000     0.021200000000     0.578700000000     0.200699   
H        H      0.160700000000     0.009400000000     0.627100000000     0.200699   
H        H      0.107200000000     0.086100000000     0.658200000000     0.200699   
H        H      0.010600000000     0.842200000000     0.550730000000     0.200699   
H        H      0.931600000000     0.901800000000     0.545130000000     0.200699   
H        H      0.879600000000     0.775000000000     0.581430000000     0.200699   
H        H      0.934700000000     0.955900000000     0.754630000000     0.200699   
H        H      0.839300000000     0.848700000000     0.706230000000     0.200699   
H        H      0.892800000000     0.978900000000     0.675130000000     0.200699   
H        H      0.842200000000     0.010600000000     0.115930000000     0.200699   
H        H      0.901800000000     0.931600000000     0.121530000000     0.200699   
H        H      0.775000000000     0.879600000000     0.085230000000     0.200699   
H        H      0.955900000000     0.934700000000     0.912030000000     0.200699   
H        H      0.848700000000     0.839300000000     0.960430000000     0.200699   
H        H      0.978900000000     0.892800000000     0.991530000000     0.200699   
H        H      0.831600000000     0.989400000000     0.884070000000     0.200699   
H        H      0.970200000000     0.068400000000     0.878470000000     0.200699   
H        H      0.895400000000     0.120400000000     0.914770000000     0.200699   
H        H      0.021200000000     0.065300000000     0.087970000000     0.200699   
H        H      0.009400000000     0.160700000000     0.039570000000     0.200699   
H        H      0.086100000000     0.107200000000     0.008470000000     0.200699   
H        H      0.168400000000     0.157800000000     0.449270000000     0.200699   
H        H      0.029800000000     0.098200000000     0.454870000000     0.200699   
H        H      0.104600000000     0.225000000000     0.418570000000     0.200699   
H        H      0.978800000000     0.044100000000     0.245370000000     0.200699   
H        H      0.990600000000     0.151300000000     0.293770000000     0.200699   
H        H      0.913900000000     0.021100000000     0.324870000000     0.200699   
H        H      0.157800000000     0.168400000000     0.217400000000     0.200699   
H        H      0.098200000000     0.029800000000     0.211800000000     0.200699   
H        H      0.225000000000     0.104600000000     0.248100000000     0.200699   
H        H      0.044100000000     0.978800000000     0.421300000000     0.200699   
H        H      0.151300000000     0.990600000000     0.372900000000     0.200699   
H        H      0.021100000000     0.913900000000     0.341800000000     0.200699   
C        C      0.459300000000     0.351700000000     0.515100000000    -0.248671   
C        C      0.544200000000     0.410400000000     0.586500000000    -0.248671   
C        C      0.520900000000     0.511600000000     0.607000000000    -0.248671   
C        C      0.384900000000     0.459200000000     0.594500000000    -0.248671   
C        C      0.355600000000     0.368200000000     0.533800000000    -0.248671   
C        C      0.508200000000     0.417500000000     0.438500000000    -0.248671   
C        C      0.670500000000     0.455100000000     0.568200000000    -0.248671   
C        C      0.520700000000     0.326400000000     0.647300000000    -0.248671   
C        C      0.428900000000     0.223300000000     0.503700000000    -0.248671   
C        C      0.564500000000     0.562400000000     0.686700000000    -0.248671   
C        C      0.892400000000     0.540700000000     0.848430000000    -0.248671   
C        C      0.866200000000     0.455800000000     0.919830000000    -0.248671   
C        C      0.990700000000     0.479100000000     0.940330000000    -0.248671   
C        C      0.074300000000     0.615100000000     0.927830000000    -0.248671   
C        C      0.012600000000     0.644400000000     0.867130000000    -0.248671   
C        C      0.909300000000     0.491800000000     0.771830000000    -0.248671   
C        C      0.784600000000     0.329500000000     0.901530000000    -0.248671   
C        C      0.805700000000     0.479300000000     0.980630000000    -0.248671   
C        C      0.794400000000     0.571100000000     0.837030000000    -0.248671   
C        C      0.997900000000     0.435500000000     0.020030000000    -0.248671   
C        C      0.648300000000     0.107600000000     0.181770000000    -0.248671   
C        C      0.589600000000     0.133800000000     0.253170000000    -0.248671   
C        C      0.488400000000     0.009300000000     0.273670000000    -0.248671   
C        C      0.540800000000     0.925700000000     0.261170000000    -0.248671   
C        C      0.631800000000     0.987400000000     0.200470000000    -0.248671   
C        C      0.582500000000     0.090700000000     0.105170000000    -0.248671   
C        C      0.544900000000     0.215400000000     0.234870000000    -0.248671   
C        C      0.673600000000     0.194300000000     0.313970000000    -0.248671   
C        C      0.776700000000     0.205600000000     0.170370000000    -0.248671   
C        C      0.437600000000     0.002100000000     0.353370000000    -0.248671   
C        C      0.107600000000     0.648300000000     0.484900000000    -0.248671   
C        C      0.133800000000     0.589600000000     0.413500000000    -0.248671   
C        C      0.009300000000     0.488400000000     0.393000000000    -0.248671   
C        C      0.925700000000     0.540800000000     0.405500000000    -0.248671   
C        C      0.987400000000     0.631800000000     0.466200000000    -0.248671   
C        C      0.090700000000     0.582500000000     0.561500000000    -0.248671   
C        C      0.215400000000     0.544900000000     0.431800000000    -0.248671   
C        C      0.194300000000     0.673600000000     0.352700000000    -0.248671   
C        C      0.205600000000     0.776700000000     0.496300000000    -0.248671   
C        C      0.002100000000     0.437600000000     0.313300000000    -0.248671   
C        C      0.351700000000     0.459300000000     0.151570000000    -0.248671   
C        C      0.410400000000     0.544200000000     0.080170000000    -0.248671   
C        C      0.511600000000     0.520900000000     0.059670000000    -0.248671   
C        C      0.459200000000     0.384900000000     0.072170000000    -0.248671   
C        C      0.368200000000     0.355600000000     0.132870000000    -0.248671   
C        C      0.417500000000     0.508200000000     0.228170000000    -0.248671   
C        C      0.455100000000     0.670500000000     0.098470000000    -0.248671   
C        C      0.326400000000     0.520700000000     0.019370000000    -0.248671   
C        C      0.223300000000     0.428900000000     0.162970000000    -0.248671   
C        C      0.562400000000     0.564500000000     0.979970000000    -0.248671   
C        C      0.540700000000     0.892400000000     0.818230000000    -0.248671   
C        C      0.455800000000     0.866200000000     0.746830000000    -0.248671   
C        C      0.479100000000     0.990700000000     0.726330000000    -0.248671   
C        C      0.615100000000     0.074300000000     0.738830000000    -0.248671   
C        C      0.644400000000     0.012600000000     0.799530000000    -0.248671   
C        C      0.491800000000     0.909300000000     0.894830000000    -0.248671   
C        C      0.329500000000     0.784600000000     0.765130000000    -0.248671   
C        C      0.479300000000     0.805700000000     0.686030000000    -0.248671   
C        C      0.571100000000     0.794400000000     0.829630000000    -0.248671   
C        C      0.435500000000     0.997900000000     0.646630000000    -0.248671   
C        C      0.050000000000     0.901000000000     0.757600000000    -0.248671   
C        C      0.090400000000     0.016000000000     0.629800000000    -0.248671   
C        C      0.950000000000     0.851000000000     0.575730000000    -0.248671   
C        C      0.909600000000     0.925600000000     0.703530000000    -0.248671   
C        C      0.851000000000     0.950000000000     0.090930000000    -0.248671   
C        C      0.925600000000     0.909600000000     0.963130000000    -0.248671   
C        C      0.901000000000     0.050000000000     0.909070000000    -0.248671   
C        C      0.016000000000     0.090400000000     0.036870000000    -0.248671   
C        C      0.099000000000     0.149000000000     0.424270000000    -0.248671   
C        C      0.984000000000     0.074400000000     0.296470000000    -0.248671   
C        C      0.149000000000     0.099000000000     0.242400000000    -0.248671   
C        C      0.074400000000     0.984000000000     0.370200000000    -0.248671   
N        N      0.000000000000     0.915900000000     0.666670000000     0.0263488  
N        N      0.915900000000     0.000000000000     0.000000000000     0.0263488  
N        N      0.084100000000     0.084100000000     0.333330000000     0.0263488  
O        O      0.324500000000     0.138000000000     0.514300000000    -0.548268   
O        O      0.511600000000     0.203000000000     0.487100000000    -0.548268   
O        O      0.497100000000     0.515700000000     0.743300000000    -0.548268   
O        O      0.667300000000     0.643700000000     0.697900000000    -0.548268   
O        O      0.813500000000     0.675500000000     0.847630000000    -0.548268   
O        O      0.691400000000     0.488400000000     0.820430000000    -0.548268   
O        O      0.018600000000     0.502900000000     0.076630000000    -0.548268   
O        O      0.976400000000     0.332700000000     0.031230000000    -0.548268   
O        O      0.862000000000     0.186500000000     0.180970000000    -0.548268   
O        O      0.797000000000     0.308600000000     0.153770000000    -0.548268   
O        O      0.484300000000     0.981400000000     0.409970000000    -0.548268   
O        O      0.356300000000     0.023600000000     0.364570000000    -0.548268   
O        O      0.186500000000     0.862000000000     0.485700000000    -0.548268   
O        O      0.308600000000     0.797000000000     0.512900000000    -0.548268   
O        O      0.981400000000     0.484300000000     0.256700000000    -0.548268   
O        O      0.023600000000     0.356300000000     0.302100000000    -0.548268   
O        O      0.138000000000     0.324500000000     0.152370000000    -0.548268   
O        O      0.203000000000     0.511600000000     0.179570000000    -0.548268   
O        O      0.515700000000     0.497100000000     0.923370000000    -0.548268   
O        O      0.643700000000     0.667300000000     0.968770000000    -0.548268   
O        O      0.675500000000     0.813500000000     0.819030000000    -0.548268   
O        O      0.488400000000     0.691400000000     0.846230000000    -0.548268   
O        O      0.502900000000     0.018600000000     0.590030000000    -0.548268   
O        O      0.332700000000     0.976400000000     0.635430000000    -0.548268   


