data_DUBWON_original

_audit_creation_method RASPA-1.0
_audit_creation_date 2022-1-29
_audit_author_name 'Felipe Lopes de Oliveira <felipe.lopes.oliveira@ibm.com>'

_cell_length_a    9.119
_cell_length_b    14.4711
_cell_length_c    14.7355
_cell_angle_alpha 90
_cell_angle_beta  90
_cell_angle_gamma 107.752
_cell_volume      1851.94

_symmetry_cell_setting          triclinic
_symmetry_space_group_name_Hall 'P 1'
_symmetry_space_group_name_H-M  'P 1'
_symmetry_Int_Tables_number     1

_symmetry_equiv_pos_as_xyz 'x,y,z'

loop_
_atom_site_label
_atom_site_type_symbol
_atom_site_fract_x
_atom_site_fract_y
_atom_site_fract_z
_atom_site_charge
Zn       Zn     0.277240000000     0.364370000000     0.349060000000     0.468496   
Zn       Zn     0.183110000000     0.134190000000     0.252610000000     0.468496   
Zn       Zn     0.222760000000     0.135630000000     0.849060000000     0.468496   
Zn       Zn     0.316890000000     0.365810000000     0.752610000000     0.468496   
Zn       Zn     0.722760000000     0.635630000000     0.650940000000     0.468496   
Zn       Zn     0.816890000000     0.865810000000     0.747390000000     0.468496   
Zn       Zn     0.777240000000     0.864370000000     0.150940000000     0.468496   
Zn       Zn     0.683110000000     0.634190000000     0.247390000000     0.468496   
H        H      0.858100000000     0.394500000000     0.298000000000     0.0256241  
H        H      0.701300000000     0.102400000000     0.277900000000     0.0256241  
H        H      0.450500000000     0.106700000000     0.286100000000     0.0256241  
H        H      0.261100000000     0.410700000000     0.553300000000     0.0256241  
H        H      0.641900000000     0.105500000000     0.798000000000     0.0256241  
H        H      0.798700000000     0.397600000000     0.777900000000     0.0256241  
H        H      0.049500000000     0.393300000000     0.786100000000     0.0256241  
H        H      0.238900000000     0.089300000000     0.053300000000     0.0256241  
H        H      0.141900000000     0.605500000000     0.702000000000     0.0256241  
H        H      0.298700000000     0.897600000000     0.722100000000     0.0256241  
H        H      0.549500000000     0.893300000000     0.713900000000     0.0256241  
H        H      0.738900000000     0.589300000000     0.446700000000     0.0256241  
H        H      0.358100000000     0.894500000000     0.202000000000     0.0256241  
H        H      0.201300000000     0.602400000000     0.222100000000     0.0256241  
H        H      0.950500000000     0.606700000000     0.213900000000     0.0256241  
H        H      0.761100000000     0.910700000000     0.946700000000     0.0256241  
C        C      0.497800000000     0.254600000000     0.295400000000     0.116543   
C        C      0.624300000000     0.341600000000     0.298500000000     0.116543   
C        C      0.774600000000     0.336100000000     0.295200000000     0.116543   
C        C      0.806000000000     0.248400000000     0.287900000000     0.116543   
C        C      0.682200000000     0.163000000000     0.283700000000     0.116543   
C        C      0.532500000000     0.165800000000     0.288000000000     0.116543   
C        C      0.606300000000     0.441300000000     0.301200000000     0.116543   
C        C      0.967500000000     0.244900000000     0.284400000000     0.116543   
C        C      0.278200000000     0.349300000000     0.549900000000     0.116543   
C        C      0.002200000000     0.245400000000     0.795400000000     0.116543   
C        C      0.875700000000     0.158400000000     0.798500000000     0.116543   
C        C      0.725400000000     0.163900000000     0.795200000000     0.116543   
C        C      0.694000000000     0.251600000000     0.787900000000     0.116543   
C        C      0.817800000000     0.337000000000     0.783700000000     0.116543   
C        C      0.967500000000     0.334200000000     0.788000000000     0.116543   
C        C      0.893700000000     0.058700000000     0.801200000000     0.116543   
C        C      0.532500000000     0.255100000000     0.784400000000     0.116543   
C        C      0.221800000000     0.150700000000     0.049900000000     0.116543   
C        C      0.502200000000     0.745400000000     0.704600000000     0.116543   
C        C      0.375700000000     0.658400000000     0.701500000000     0.116543   
C        C      0.225400000000     0.663900000000     0.704800000000     0.116543   
C        C      0.194000000000     0.751600000000     0.712100000000     0.116543   
C        C      0.317800000000     0.837000000000     0.716300000000     0.116543   
C        C      0.467500000000     0.834200000000     0.712000000000     0.116543   
C        C      0.393700000000     0.558700000000     0.698800000000     0.116543   
C        C      0.032500000000     0.755100000000     0.715600000000     0.116543   
C        C      0.721800000000     0.650700000000     0.450100000000     0.116543   
C        C      0.997800000000     0.754600000000     0.204600000000     0.116543   
C        C      0.124300000000     0.841600000000     0.201500000000     0.116543   
C        C      0.274600000000     0.836100000000     0.204800000000     0.116543   
C        C      0.306000000000     0.748400000000     0.212100000000     0.116543   
C        C      0.182200000000     0.663000000000     0.216300000000     0.116543   
C        C      0.032500000000     0.665800000000     0.212000000000     0.116543   
C        C      0.106300000000     0.941300000000     0.198800000000     0.116543   
C        C      0.467500000000     0.744900000000     0.215600000000     0.116543   
C        C      0.778200000000     0.849300000000     0.950100000000     0.116543   
O        O      0.351800000000     0.252640000000     0.296760000000    -0.298339   
O        O      0.476100000000     0.454650000000     0.309580000000    -0.298339   
O        O      0.726200000000     0.512260000000     0.293500000000    -0.298339   
O        O      0.074300000000     0.324370000000     0.290900000000    -0.298339   
O        O      0.987500000000     0.162450000000     0.276000000000    -0.298339   
O        O      0.280400000000     0.312600000000     0.473000000000    -0.298339   
O        O      0.297100000000     0.309600000000     0.622000000000    -0.298339   
O        O      0.148200000000     0.247360000000     0.796760000000    -0.298339   
O        O      0.023900000000     0.045350000000     0.809580000000    -0.298339   
O        O      0.773800000000     0.987740000000     0.793500000000    -0.298339   
O        O      0.425700000000     0.175630000000     0.790900000000    -0.298339   
O        O      0.512500000000     0.337550000000     0.776000000000    -0.298339   
O        O      0.219600000000     0.187400000000     0.973000000000    -0.298339   
O        O      0.202900000000     0.190400000000     0.122000000000    -0.298339   
O        O      0.648200000000     0.747360000000     0.703240000000    -0.298339   
O        O      0.523900000000     0.545350000000     0.690420000000    -0.298339   
O        O      0.273800000000     0.487740000000     0.706500000000    -0.298339   
O        O      0.925700000000     0.675630000000     0.709100000000    -0.298339   
O        O      0.012500000000     0.837550000000     0.724000000000    -0.298339   
O        O      0.719600000000     0.687400000000     0.527000000000    -0.298339   
O        O      0.702900000000     0.690400000000     0.378000000000    -0.298339   
O        O      0.851800000000     0.752640000000     0.203240000000    -0.298339   
O        O      0.976100000000     0.954650000000     0.190420000000    -0.298339   
O        O      0.226200000000     0.012260000000     0.206500000000    -0.298339   
O        O      0.574300000000     0.824370000000     0.209100000000    -0.298339   
O        O      0.487500000000     0.662450000000     0.224000000000    -0.298339   
O        O      0.780400000000     0.812600000000     0.027000000000    -0.298339   
O        O      0.797100000000     0.809600000000     0.878000000000    -0.298339   


