data_EBIHII_original

_audit_creation_method RASPA-1.0
_audit_creation_date 2022-1-31
_audit_author_name 'Felipe Lopes de Oliveira <felipe.lopes.oliveira@ibm.com>'

_cell_length_a    12.808
_cell_length_b    14.155
_cell_length_c    18.0479
_cell_angle_alpha 101.46
_cell_angle_beta  110.783
_cell_angle_gamma 90
_cell_volume      2989.25

_symmetry_cell_setting          triclinic
_symmetry_space_group_name_Hall 'P 1'
_symmetry_space_group_name_H-M  'P 1'
_symmetry_Int_Tables_number     1

_symmetry_equiv_pos_as_xyz 'x,y,z'

loop_
_atom_site_label
_atom_site_type_symbol
_atom_site_fract_x
_atom_site_fract_y
_atom_site_fract_z
_atom_site_charge
Fe       Fe     0.254090000000     0.644810000000     0.038160000000     0.835931   
Fe       Fe     0.534330000000     0.992730000000     0.430800000000     0.835931   
Fe       Fe     0.215930000000     0.855190000000     0.961840000000     0.835931   
Fe       Fe     0.103530000000     0.507270000000     0.569200000000     0.835931   
Fe       Fe     0.745910000000     0.355190000000     0.961840000000     0.835931   
Fe       Fe     0.465670000000     0.007270000000     0.569200000000     0.835931   
Fe       Fe     0.784070000000     0.144810000000     0.038160000000     0.835931   
Fe       Fe     0.896470000000     0.492730000000     0.430800000000     0.835931   
Fe       Fe     0.000000000000     0.500000000000     0.000000000000     0.835931   
Fe       Fe     0.000000000000     0.000000000000     0.000000000000     0.835931   
H        H      0.326500000000     0.734300000000     0.279000000000     0.199117   
H        H      0.266400000000     0.722900000000     0.480400000000     0.199117   
H        H      0.084600000000     0.545900000000     0.268400000000     0.199117   
H        H      0.899400000000     0.629600000000     0.864600000000     0.199117   
H        H      0.956100000000     0.658200000000     0.807400000000     0.199117   
H        H      0.934000000000     0.738400000000     0.872400000000     0.199117   
H        H      0.568600000000     0.611000000000     0.010200000000     0.199117   
H        H      0.047500000000     0.765700000000     0.721000000000     0.199117   
H        H      0.786000000000     0.777100000000     0.519600000000     0.199117   
H        H      0.816200000000     0.954100000000     0.731600000000     0.199117   
H        H      0.034800000000     0.870400000000     0.135400000000     0.199117   
H        H      0.148700000000     0.841800000000     0.192600000000     0.199117   
H        H      0.061600000000     0.761600000000     0.127600000000     0.199117   
H        H      0.558400000000     0.889000000000     0.989800000000     0.199117   
H        H      0.673500000000     0.265700000000     0.721000000000     0.199117   
H        H      0.733600000000     0.277100000000     0.519600000000     0.199117   
H        H      0.915400000000     0.454100000000     0.731600000000     0.199117   
H        H      0.100600000000     0.370400000000     0.135400000000     0.199117   
H        H      0.043900000000     0.341800000000     0.192600000000     0.199117   
H        H      0.066000000000     0.261600000000     0.127600000000     0.199117   
H        H      0.431400000000     0.389000000000     0.989800000000     0.199117   
H        H      0.952500000000     0.234300000000     0.279000000000     0.199117   
H        H      0.214000000000     0.222900000000     0.480400000000     0.199117   
H        H      0.183800000000     0.045900000000     0.268400000000     0.199117   
H        H      0.965200000000     0.129600000000     0.864600000000     0.199117   
H        H      0.851300000000     0.158200000000     0.807400000000     0.199117   
H        H      0.938400000000     0.238400000000     0.872400000000     0.199117   
H        H      0.441600000000     0.111000000000     0.010200000000     0.199117   
H        H      0.835600000000     0.750000000000     0.000000000000     0.199117   
H        H      0.164400000000     0.250000000000     0.000000000000     0.199117   
C        C      0.202630000000     0.632900000000     0.259860000000     0.0521732  
C        C      0.285200000000     0.708400000000     0.304400000000     0.0521732  
C        C      0.305850000000     0.744700000000     0.385100000000     0.0521732  
C        C      0.249360000000     0.701300000000     0.424920000000     0.0521732  
C        C      0.167420000000     0.625600000000     0.381440000000     0.0521732  
C        C      0.142230000000     0.593700000000     0.298260000000     0.0521732  
C        C      0.178080000000     0.598000000000     0.169360000000     0.0521732  
C        C      0.386160000000     0.833600000000     0.429720000000     0.0521732  
C        C      0.105610000000     0.580000000000     0.424620000000     0.0521732  
C        C      0.066030000000     0.662900000000     0.920860000000     0.0521732  
C        C      0.953910000000     0.673200000000     0.861020000000     0.0521732  
C        C      0.711590000000     0.665200000000     0.004180000000     0.0521732  
C        C      0.602860000000     0.666400000000     0.005520000000     0.0521732  
C        C      0.770320000000     0.573900000000     0.004640000000     0.0521732  
C        C      0.942770000000     0.867100000000     0.740140000000     0.0521732  
C        C      0.980800000000     0.791600000000     0.695600000000     0.0521732  
C        C      0.920750000000     0.755300000000     0.614900000000     0.0521732  
C        C      0.824440000000     0.798700000000     0.575080000000     0.0521732  
C        C      0.785980000000     0.874400000000     0.618560000000     0.0521732  
C        C      0.843970000000     0.906300000000     0.701740000000     0.0521732  
C        C      0.008720000000     0.902000000000     0.830640000000     0.0521732  
C        C      0.956440000000     0.666400000000     0.570280000000     0.0521732  
C        C      0.680990000000     0.920000000000     0.575380000000     0.0521732  
C        C      0.145170000000     0.837100000000     0.079140000000     0.0521732  
C        C      0.092890000000     0.826800000000     0.138980000000     0.0521732  
C        C      0.707410000000     0.834800000000     0.995820000000     0.0521732  
C        C      0.597340000000     0.833600000000     0.994480000000     0.0521732  
C        C      0.765680000000     0.926100000000     0.995360000000     0.0521732  
C        C      0.797370000000     0.367100000000     0.740140000000     0.0521732  
C        C      0.714800000000     0.291600000000     0.695600000000     0.0521732  
C        C      0.694150000000     0.255300000000     0.614900000000     0.0521732  
C        C      0.750640000000     0.298700000000     0.575080000000     0.0521732  
C        C      0.832580000000     0.374400000000     0.618560000000     0.0521732  
C        C      0.857770000000     0.406300000000     0.701740000000     0.0521732  
C        C      0.821920000000     0.402000000000     0.830640000000     0.0521732  
C        C      0.613840000000     0.166400000000     0.570280000000     0.0521732  
C        C      0.894390000000     0.420000000000     0.575380000000     0.0521732  
C        C      0.933970000000     0.337100000000     0.079140000000     0.0521732  
C        C      0.046090000000     0.326800000000     0.138980000000     0.0521732  
C        C      0.288410000000     0.334800000000     0.995820000000     0.0521732  
C        C      0.397140000000     0.333600000000     0.994480000000     0.0521732  
C        C      0.229680000000     0.426100000000     0.995360000000     0.0521732  
C        C      0.057230000000     0.132900000000     0.259860000000     0.0521732  
C        C      0.019200000000     0.208400000000     0.304400000000     0.0521732  
C        C      0.079250000000     0.244700000000     0.385100000000     0.0521732  
C        C      0.175560000000     0.201300000000     0.424920000000     0.0521732  
C        C      0.214020000000     0.125600000000     0.381440000000     0.0521732  
C        C      0.156030000000     0.093700000000     0.298260000000     0.0521732  
C        C      0.991280000000     0.098000000000     0.169360000000     0.0521732  
C        C      0.043560000000     0.333600000000     0.429720000000     0.0521732  
C        C      0.319010000000     0.080000000000     0.424620000000     0.0521732  
C        C      0.854830000000     0.162900000000     0.920860000000     0.0521732  
C        C      0.907110000000     0.173200000000     0.861020000000     0.0521732  
C        C      0.292590000000     0.165200000000     0.004180000000     0.0521732  
C        C      0.402660000000     0.166400000000     0.005520000000     0.0521732  
C        C      0.234320000000     0.073900000000     0.004640000000     0.0521732  
C        C      0.545700000000     0.750000000000     0.000000000000     0.0521732  
C        C      0.763000000000     0.750000000000     0.000000000000     0.0521732  
C        C      0.429000000000     0.750000000000     0.000000000000     0.0521732  
C        C      0.454300000000     0.250000000000     0.000000000000     0.0521732  
C        C      0.237000000000     0.250000000000     0.000000000000     0.0521732  
C        C      0.571000000000     0.250000000000     0.000000000000     0.0521732  
O        O      0.086060000000     0.553500000000     0.128320000000    -0.399262   
O        O      0.252600000000     0.620500000000     0.144600000000    -0.399262   
O        O      0.442550000000     0.861800000000     0.392900000000    -0.399262   
O        O      0.387870000000     0.873500000000     0.498940000000    -0.399262   
O        O      0.160150000000     0.573300000000     0.495700000000    -0.399262   
O        O      0.005090000000     0.552700000000     0.385780000000    -0.399262   
O        O      0.154240000000     0.696800000000     0.916280000000    -0.399262   
O        O      0.074950000000     0.624100000000     0.979900000000    -0.399262   
O        O      0.869010000000     0.580300000000     0.006220000000    -0.399262   
O        O      0.716610000000     0.498000000000     0.002020000000    -0.399262   
O        O      0.399700000000     0.685900000000     0.029400000000    -0.399262   
O        O      0.957740000000     0.946500000000     0.871680000000    -0.399262   
O        O      0.108000000000     0.879500000000     0.855400000000    -0.399262   
O        O      0.049650000000     0.638200000000     0.607100000000    -0.399262   
O        O      0.888930000000     0.626500000000     0.501060000000    -0.399262   
O        O      0.664450000000     0.926700000000     0.504300000000    -0.399262   
O        O      0.619310000000     0.947300000000     0.614220000000    -0.399262   
O        O      0.237960000000     0.803200000000     0.083720000000    -0.399262   
O        O      0.095050000000     0.875900000000     0.020100000000    -0.399262   
O        O      0.862790000000     0.919700000000     0.993780000000    -0.399262   
O        O      0.714590000000     0.002000000000     0.997980000000    -0.399262   
O        O      0.370300000000     0.814100000000     0.970600000000    -0.399262   
O        O      0.913940000000     0.446500000000     0.871680000000    -0.399262   
O        O      0.747400000000     0.379500000000     0.855400000000    -0.399262   
O        O      0.557450000000     0.138200000000     0.607100000000    -0.399262   
O        O      0.612130000000     0.126500000000     0.501060000000    -0.399262   
O        O      0.839850000000     0.426700000000     0.504300000000    -0.399262   
O        O      0.994910000000     0.447300000000     0.614220000000    -0.399262   
O        O      0.845760000000     0.303200000000     0.083720000000    -0.399262   
O        O      0.925050000000     0.375900000000     0.020100000000    -0.399262   
O        O      0.130990000000     0.419700000000     0.993780000000    -0.399262   
O        O      0.283390000000     0.502000000000     0.997980000000    -0.399262   
O        O      0.600300000000     0.314100000000     0.970600000000    -0.399262   
O        O      0.042260000000     0.053500000000     0.128320000000    -0.399262   
O        O      0.892000000000     0.120500000000     0.144600000000    -0.399262   
O        O      0.950350000000     0.361800000000     0.392900000000    -0.399262   
O        O      0.111070000000     0.373500000000     0.498940000000    -0.399262   
O        O      0.335550000000     0.073300000000     0.495700000000    -0.399262   
O        O      0.380690000000     0.052700000000     0.385780000000    -0.399262   
O        O      0.762040000000     0.196800000000     0.916280000000    -0.399262   
O        O      0.904950000000     0.124100000000     0.979900000000    -0.399262   
O        O      0.137210000000     0.080300000000     0.006220000000    -0.399262   
O        O      0.285410000000     0.998000000000     0.002020000000    -0.399262   
O        O      0.629700000000     0.185900000000     0.029400000000    -0.399262   


