data_ECASAD_original

_audit_creation_method RASPA-1.0
_audit_creation_date 2022-1-29
_audit_author_name 'Felipe Lopes de Oliveira <felipe.lopes.oliveira@ibm.com>'

_cell_length_a    9.0656
_cell_length_b    10.229
_cell_length_c    11.764
_cell_angle_alpha 115.77
_cell_angle_beta  90.1891
_cell_angle_gamma 90
_cell_volume      982.399

_symmetry_cell_setting          triclinic
_symmetry_space_group_name_Hall 'P 1'
_symmetry_space_group_name_H-M  'P 1'
_symmetry_Int_Tables_number     1

_symmetry_equiv_pos_as_xyz 'x,y,z'

loop_
_atom_site_label
_atom_site_type_symbol
_atom_site_fract_x
_atom_site_fract_y
_atom_site_fract_z
_atom_site_charge
Zn       Zn     0.929960000000     0.293120000000     0.446880000000     0.467743   
Zn       Zn     0.570040000000     0.846240000000     0.553120000000     0.467743   
Zn       Zn     0.070040000000     0.706880000000     0.553120000000     0.467743   
Zn       Zn     0.429960000000     0.153760000000     0.446880000000     0.467743   
P        P      0.736710000000     0.120700000000     0.556140000000     0.536948   
P        P      0.763290000000     0.564560000000     0.443860000000     0.536948   
P        P      0.263290000000     0.879300000000     0.443860000000     0.536948   
P        P      0.236710000000     0.435440000000     0.556140000000     0.536948   
H        H      0.885900000000     0.166300000000     0.693600000000     0.0971556  
H        H      0.014600000000     0.384300000000     0.240200000000     0.0971556  
H        H      0.153800000000     0.298800000000     0.060800000000     0.0971556  
H        H      0.212700000000     0.930000000000     0.095400000000     0.0971556  
H        H      0.068800000000     0.026200000000     0.274000000000     0.0971556  
H        H      0.614100000000     0.472700000000     0.306400000000     0.0971556  
H        H      0.485400000000     0.144100000000     0.759800000000     0.0971556  
H        H      0.346200000000     0.238000000000     0.939200000000     0.0971556  
H        H      0.287300000000     0.834600000000     0.904600000000     0.0971556  
H        H      0.431200000000     0.752200000000     0.726000000000     0.0971556  
H        H      0.114100000000     0.833700000000     0.306400000000     0.0971556  
H        H      0.985400000000     0.615700000000     0.759800000000     0.0971556  
H        H      0.846200000000     0.701200000000     0.939200000000     0.0971556  
H        H      0.787300000000     0.070000000000     0.904600000000     0.0971556  
H        H      0.931200000000     0.973800000000     0.726000000000     0.0971556  
H        H      0.385900000000     0.527300000000     0.693600000000     0.0971556  
H        H      0.514600000000     0.855900000000     0.240200000000     0.0971556  
H        H      0.653800000000     0.762000000000     0.060800000000     0.0971556  
H        H      0.712700000000     0.165400000000     0.095400000000     0.0971556  
H        H      0.568800000000     0.247800000000     0.274000000000     0.0971556  
C        C      0.054900000000     0.291900000000     0.210800000000    -0.00345344 
C        C      0.139200000000     0.241320000000     0.103040000000    -0.00345344 
C        C      0.202400000000     0.103850000000     0.057300000000    -0.00345344 
C        C      0.174000000000     0.022990000000     0.122980000000    -0.00345344 
C        C      0.087000000000     0.081940000000     0.230680000000    -0.00345344 
C        C      0.445100000000     0.081100000000     0.789200000000    -0.00345344 
C        C      0.360800000000     0.138280000000     0.896960000000    -0.00345344 
C        C      0.297600000000     0.046550000000     0.942700000000    -0.00345344 
C        C      0.326000000000     0.900010000000     0.877020000000    -0.00345344 
C        C      0.413000000000     0.851260000000     0.769320000000    -0.00345344 
C        C      0.945100000000     0.708100000000     0.789200000000    -0.00345344 
C        C      0.860800000000     0.758680000000     0.896960000000    -0.00345344 
C        C      0.797600000000     0.896150000000     0.942700000000    -0.00345344 
C        C      0.826000000000     0.977010000000     0.877020000000    -0.00345344 
C        C      0.913000000000     0.918060000000     0.769320000000    -0.00345344 
C        C      0.554900000000     0.918900000000     0.210800000000    -0.00345344 
C        C      0.639200000000     0.861720000000     0.103040000000    -0.00345344 
C        C      0.702400000000     0.953450000000     0.057300000000    -0.00345344 
C        C      0.674000000000     0.099990000000     0.122980000000    -0.00345344 
C        C      0.587000000000     0.148740000000     0.230680000000    -0.00345344 
N        N      0.028500000000     0.214080000000     0.274960000000    -0.169433   
N        N      0.471500000000     0.939120000000     0.725040000000    -0.169433   
N        N      0.971500000000     0.785920000000     0.725040000000    -0.169433   
N        N      0.528500000000     0.060880000000     0.274960000000    -0.169433   
O        O      0.841500000000     0.128580000000     0.459020000000    -0.325942   
O        O      0.091600000000     0.368030000000     0.567860000000    -0.325942   
O        O      0.715400000000     0.962650000000     0.525180000000    -0.325942   
O        O      0.806000000000     0.202710000000     0.691420000000    -0.325942   
O        O      0.658500000000     0.669560000000     0.540980000000    -0.325942   
O        O      0.408400000000     0.800170000000     0.432140000000    -0.325942   
O        O      0.784600000000     0.437470000000     0.474820000000    -0.325942   
O        O      0.694000000000     0.511290000000     0.308580000000    -0.325942   
O        O      0.158500000000     0.871420000000     0.540980000000    -0.325942   
O        O      0.908400000000     0.631970000000     0.432140000000    -0.325942   
O        O      0.284600000000     0.037350000000     0.474820000000    -0.325942   
O        O      0.194000000000     0.797290000000     0.308580000000    -0.325942   
O        O      0.341500000000     0.330440000000     0.459020000000    -0.325942   
O        O      0.591600000000     0.199830000000     0.567860000000    -0.325942   
O        O      0.215400000000     0.562530000000     0.525180000000    -0.325942   
O        O      0.306000000000     0.488710000000     0.691420000000    -0.325942   


