data_ECUTON_original

_audit_creation_method RASPA-1.0
_audit_creation_date 2022-1-30
_audit_author_name 'Felipe Lopes de Oliveira <felipe.lopes.oliveira@ibm.com>'

_cell_length_a    9.417
_cell_length_b    13.128
_cell_length_c    15.913
_cell_angle_alpha 90
_cell_angle_beta  90
_cell_angle_gamma 90
_cell_volume      1967.27

_symmetry_cell_setting          triclinic
_symmetry_space_group_name_Hall 'P 1'
_symmetry_space_group_name_H-M  'P 1'
_symmetry_Int_Tables_number     1

_symmetry_equiv_pos_as_xyz 'x,y,z'

loop_
_atom_site_label
_atom_site_type_symbol
_atom_site_fract_x
_atom_site_fract_y
_atom_site_fract_z
_atom_site_charge
Zn       Zn     0.768530000000     0.669940000000     0.801000000000     0.434338   
Zn       Zn     0.731470000000     0.169940000000     0.699000000000     0.434338   
Zn       Zn     0.231470000000     0.330060000000     0.199000000000     0.434338   
Zn       Zn     0.268530000000     0.830060000000     0.301000000000     0.434338   
H        H      0.504300000000     0.696700000000     0.029300000000     0.0556105  
H        H      0.117600000000     0.608100000000     0.109800000000     0.0556105  
H        H      0.269200000000     0.514700000000     0.887200000000     0.0556105  
H        H      0.746900000000     0.372800000000     0.609800000000     0.0556105  
H        H      0.823100000000     0.750400000000     0.977400000000     0.0556105  
H        H      0.026700000000     0.546900000000     0.722800000000     0.0556105  
H        H      0.911700000000     0.415400000000     0.486300000000     0.0556105  
H        H      0.074700000000     0.416500000000     0.467000000000     0.0556105  
H        H      0.126100000000     0.428400000000     0.608300000000     0.0556105  
H        H      0.030800000000     0.332200000000     0.592100000000     0.0556105  
H        H      0.106600000000     0.730700000000     0.801600000000     0.0556105  
H        H      0.994000000000     0.833400000000     0.092700000000     0.0556105  
H        H      0.139100000000     0.874000000000     0.057600000000     0.0556105  
H        H      0.984300000000     0.007400000000     0.084400000000     0.0556105  
H        H      0.873000000000     0.960200000000     0.023000000000     0.0556105  
H        H      0.995700000000     0.196700000000     0.470700000000     0.0556105  
H        H      0.382400000000     0.108100000000     0.390200000000     0.0556105  
H        H      0.230800000000     0.014700000000     0.612800000000     0.0556105  
H        H      0.753100000000     0.872800000000     0.890200000000     0.0556105  
H        H      0.676900000000     0.250400000000     0.522600000000     0.0556105  
H        H      0.473300000000     0.046900000000     0.777200000000     0.0556105  
H        H      0.588300000000     0.915400000000     0.013700000000     0.0556105  
H        H      0.425300000000     0.916500000000     0.033000000000     0.0556105  
H        H      0.373900000000     0.928400000000     0.891700000000     0.0556105  
H        H      0.469200000000     0.832200000000     0.907900000000     0.0556105  
H        H      0.393400000000     0.230700000000     0.698400000000     0.0556105  
H        H      0.506000000000     0.333400000000     0.407300000000     0.0556105  
H        H      0.360900000000     0.374000000000     0.442400000000     0.0556105  
H        H      0.515700000000     0.507400000000     0.415600000000     0.0556105  
H        H      0.627000000000     0.460200000000     0.477000000000     0.0556105  
H        H      0.495700000000     0.303300000000     0.970700000000     0.0556105  
H        H      0.882400000000     0.391900000000     0.890200000000     0.0556105  
H        H      0.730800000000     0.485300000000     0.112800000000     0.0556105  
H        H      0.253100000000     0.627200000000     0.390200000000     0.0556105  
H        H      0.176900000000     0.249600000000     0.022600000000     0.0556105  
H        H      0.973300000000     0.453100000000     0.277200000000     0.0556105  
H        H      0.088300000000     0.584600000000     0.513700000000     0.0556105  
H        H      0.925300000000     0.583500000000     0.533000000000     0.0556105  
H        H      0.873900000000     0.571600000000     0.391700000000     0.0556105  
H        H      0.969200000000     0.667800000000     0.407900000000     0.0556105  
H        H      0.893400000000     0.269300000000     0.198400000000     0.0556105  
H        H      0.006000000000     0.166600000000     0.907300000000     0.0556105  
H        H      0.860900000000     0.126000000000     0.942400000000     0.0556105  
H        H      0.015700000000     0.992600000000     0.915600000000     0.0556105  
H        H      0.127000000000     0.039800000000     0.977000000000     0.0556105  
H        H      0.004300000000     0.803300000000     0.529300000000     0.0556105  
H        H      0.617600000000     0.891900000000     0.609800000000     0.0556105  
H        H      0.769200000000     0.985300000000     0.387200000000     0.0556105  
H        H      0.246900000000     0.127200000000     0.109800000000     0.0556105  
H        H      0.323100000000     0.749600000000     0.477400000000     0.0556105  
H        H      0.526700000000     0.953100000000     0.222800000000     0.0556105  
H        H      0.411700000000     0.084600000000     0.986300000000     0.0556105  
H        H      0.574700000000     0.083500000000     0.967000000000     0.0556105  
H        H      0.626100000000     0.071600000000     0.108300000000     0.0556105  
H        H      0.530800000000     0.167800000000     0.092100000000     0.0556105  
H        H      0.606600000000     0.769300000000     0.301600000000     0.0556105  
H        H      0.494000000000     0.666600000000     0.592700000000     0.0556105  
H        H      0.639100000000     0.626000000000     0.557600000000     0.0556105  
H        H      0.484300000000     0.492600000000     0.584400000000     0.0556105  
H        H      0.373000000000     0.539800000000     0.523000000000     0.0556105  
C        C      0.420300000000     0.661300000000     0.019700000000     0.0378762  
C        C      0.514100000000     0.613100000000     0.877400000000     0.0378762  
C        C      0.311800000000     0.663300000000     0.081600000000     0.0378762  
C        C      0.404000000000     0.608300000000     0.946300000000     0.0378762  
C        C      0.333100000000     0.724300000000     0.159500000000     0.0378762  
C        C      0.189100000000     0.608400000000     0.069400000000     0.0378762  
C        C      0.174900000000     0.553900000000     0.995600000000     0.0378762  
C        C      0.281100000000     0.553200000000     0.935700000000     0.0378762  
C        C      0.788000000000     0.419600000000     0.646400000000     0.0378762  
C        C      0.906700000000     0.756500000000     0.946700000000     0.0378762  
C        C      0.940900000000     0.516200000000     0.708800000000     0.0378762  
C        C      0.002200000000     0.443000000000     0.504400000000     0.0378762  
C        C      0.032200000000     0.406100000000     0.591300000000     0.0378762  
C        C      0.062500000000     0.747000000000     0.852100000000     0.0378762  
C        C      0.038900000000     0.866500000000     0.045100000000     0.0378762  
C        C      0.974000000000     0.969700000000     0.032400000000     0.0378762  
C        C      0.079700000000     0.161300000000     0.480300000000     0.0378762  
C        C      0.985900000000     0.113100000000     0.622600000000     0.0378762  
C        C      0.188200000000     0.163300000000     0.418400000000     0.0378762  
C        C      0.096000000000     0.108300000000     0.553700000000     0.0378762  
C        C      0.166900000000     0.224300000000     0.340500000000     0.0378762  
C        C      0.310900000000     0.108400000000     0.430600000000     0.0378762  
C        C      0.325100000000     0.053900000000     0.504400000000     0.0378762  
C        C      0.218900000000     0.053200000000     0.564300000000     0.0378762  
C        C      0.712000000000     0.919600000000     0.853600000000     0.0378762  
C        C      0.593300000000     0.256500000000     0.553300000000     0.0378762  
C        C      0.559100000000     0.016200000000     0.791200000000     0.0378762  
C        C      0.497800000000     0.943000000000     0.995600000000     0.0378762  
C        C      0.467800000000     0.906100000000     0.908700000000     0.0378762  
C        C      0.437500000000     0.247000000000     0.647900000000     0.0378762  
C        C      0.461100000000     0.366500000000     0.454900000000     0.0378762  
C        C      0.526000000000     0.469700000000     0.467600000000     0.0378762  
C        C      0.579700000000     0.338700000000     0.980300000000     0.0378762  
C        C      0.485900000000     0.386900000000     0.122600000000     0.0378762  
C        C      0.688200000000     0.336700000000     0.918400000000     0.0378762  
C        C      0.596000000000     0.391700000000     0.053700000000     0.0378762  
C        C      0.666900000000     0.275700000000     0.840500000000     0.0378762  
C        C      0.810900000000     0.391600000000     0.930600000000     0.0378762  
C        C      0.825100000000     0.446100000000     0.004400000000     0.0378762  
C        C      0.718900000000     0.446800000000     0.064300000000     0.0378762  
C        C      0.212000000000     0.580400000000     0.353600000000     0.0378762  
C        C      0.093300000000     0.243500000000     0.053300000000     0.0378762  
C        C      0.059100000000     0.483800000000     0.291200000000     0.0378762  
C        C      0.997800000000     0.557000000000     0.495600000000     0.0378762  
C        C      0.967800000000     0.593900000000     0.408700000000     0.0378762  
C        C      0.937500000000     0.253000000000     0.147900000000     0.0378762  
C        C      0.961100000000     0.133500000000     0.954900000000     0.0378762  
C        C      0.026000000000     0.030300000000     0.967600000000     0.0378762  
C        C      0.920300000000     0.838700000000     0.519700000000     0.0378762  
C        C      0.014100000000     0.886900000000     0.377400000000     0.0378762  
C        C      0.811800000000     0.836700000000     0.581600000000     0.0378762  
C        C      0.904000000000     0.891700000000     0.446300000000     0.0378762  
C        C      0.833100000000     0.775700000000     0.659500000000     0.0378762  
C        C      0.689100000000     0.891600000000     0.569400000000     0.0378762  
C        C      0.674900000000     0.946100000000     0.495600000000     0.0378762  
C        C      0.781100000000     0.946800000000     0.435700000000     0.0378762  
C        C      0.288000000000     0.080400000000     0.146400000000     0.0378762  
C        C      0.406700000000     0.743500000000     0.446700000000     0.0378762  
C        C      0.440900000000     0.983800000000     0.208800000000     0.0378762  
C        C      0.502200000000     0.057000000000     0.004400000000     0.0378762  
C        C      0.532200000000     0.093900000000     0.091300000000     0.0378762  
C        C      0.562500000000     0.753000000000     0.352100000000     0.0378762  
C        C      0.538900000000     0.633500000000     0.545100000000     0.0378762  
C        C      0.474000000000     0.530300000000     0.532400000000     0.0378762  
N        N      0.723800000000     0.474300000000     0.704200000000    -0.114379   
N        N      0.928900000000     0.719100000000     0.871400000000    -0.114379   
N        N      0.022100000000     0.804200000000     0.971700000000    -0.114379   
N        N      0.816200000000     0.537700000000     0.744500000000    -0.114379   
N        N      0.052000000000     0.493700000000     0.976900000000    -0.114379   
N        N      0.925400000000     0.445700000000     0.651300000000    -0.114379   
N        N      0.123300000000     0.798800000000     0.911000000000    -0.114379   
N        N      0.776200000000     0.974300000000     0.795800000000    -0.114379   
N        N      0.571100000000     0.219100000000     0.628600000000    -0.114379   
N        N      0.477900000000     0.304200000000     0.528300000000    -0.114379   
N        N      0.683800000000     0.037700000000     0.755500000000    -0.114379   
N        N      0.448000000000     0.993700000000     0.523100000000    -0.114379   
N        N      0.574600000000     0.945700000000     0.848700000000    -0.114379   
N        N      0.376700000000     0.298800000000     0.589000000000    -0.114379   
N        N      0.276200000000     0.525700000000     0.295800000000    -0.114379   
N        N      0.071100000000     0.280900000000     0.128600000000    -0.114379   
N        N      0.977900000000     0.195800000000     0.028300000000    -0.114379   
N        N      0.183800000000     0.462300000000     0.255500000000    -0.114379   
N        N      0.948000000000     0.506300000000     0.023100000000    -0.114379   
N        N      0.074600000000     0.554300000000     0.348700000000    -0.114379   
N        N      0.876700000000     0.201200000000     0.089000000000    -0.114379   
N        N      0.223800000000     0.025700000000     0.204200000000    -0.114379   
N        N      0.428900000000     0.780900000000     0.371400000000    -0.114379   
N        N      0.522100000000     0.695800000000     0.471700000000    -0.114379   
N        N      0.316200000000     0.962300000000     0.244500000000    -0.114379   
N        N      0.552000000000     0.006300000000     0.476900000000    -0.114379   
N        N      0.425400000000     0.054300000000     0.151300000000    -0.114379   
N        N      0.623300000000     0.701200000000     0.411000000000    -0.114379   
O        O      0.625600000000     0.662700000000     0.891500000000    -0.268465   
O        O      0.222900000000     0.740900000000     0.206000000000    -0.268465   
O        O      0.451400000000     0.758100000000     0.174700000000    -0.268465   
O        O      0.492500000000     0.572700000000     0.809600000000    -0.268465   
O        O      0.874400000000     0.162700000000     0.608500000000    -0.268465   
O        O      0.277100000000     0.240900000000     0.294000000000    -0.268465   
O        O      0.048600000000     0.258100000000     0.325300000000    -0.268465   
O        O      0.007500000000     0.072700000000     0.690400000000    -0.268465   
O        O      0.374400000000     0.337300000000     0.108500000000    -0.268465   
O        O      0.777100000000     0.259100000000     0.794000000000    -0.268465   
O        O      0.548600000000     0.241900000000     0.825300000000    -0.268465   
O        O      0.507500000000     0.427300000000     0.190400000000    -0.268465   
O        O      0.125600000000     0.837300000000     0.391500000000    -0.268465   
O        O      0.722900000000     0.759100000000     0.706000000000    -0.268465   
O        O      0.951400000000     0.741900000000     0.674700000000    -0.268465   
O        O      0.992500000000     0.927300000000     0.309600000000    -0.268465   


