data_EDADIX_original

_audit_creation_method RASPA-1.0
_audit_creation_date 2022-1-31
_audit_author_name 'Felipe Lopes de Oliveira <felipe.lopes.oliveira@ibm.com>'

_cell_length_a    10.88
_cell_length_b    10.918
_cell_length_c    14.122
_cell_angle_alpha 89.335
_cell_angle_beta  89.171
_cell_angle_gamma 78.38
_cell_volume      1642.9

_symmetry_cell_setting          triclinic
_symmetry_space_group_name_Hall 'P 1'
_symmetry_space_group_name_H-M  'P 1'
_symmetry_Int_Tables_number     1

_symmetry_equiv_pos_as_xyz 'x,y,z'

loop_
_atom_site_label
_atom_site_type_symbol
_atom_site_fract_x
_atom_site_fract_y
_atom_site_fract_z
_atom_site_charge
Zn       Zn     0.726990000000     0.337220000000     0.802260000000     0.470229   
Zn       Zn     0.730700000000     0.340330000000     0.592580000000     0.470229   
Zn       Zn     0.273010000000     0.662780000000     0.197740000000     0.470229   
Zn       Zn     0.269300000000     0.659670000000     0.407420000000     0.470229   
H        H      0.788600000000     0.724700000000     0.568700000000     0.0535127  
H        H      0.812800000000     0.932500000000     0.575400000000     0.0535127  
H        H      0.692900000000     0.954700000000     0.842100000000     0.0535127  
H        H      0.676200000000     0.748300000000     0.841800000000     0.0535127  
H        H      0.333400000000     0.370800000000     0.552300000000     0.0535127  
H        H      0.117500000000     0.368600000000     0.551100000000     0.0535127  
H        H      0.125500000000     0.307000000000     0.839000000000     0.0535127  
H        H      0.340400000000     0.314500000000     0.838000000000     0.0535127  
H        H      0.916000000000     0.313500000000     0.429600000000     0.0535127  
H        H      0.921200000000     0.309300000000     0.266800000000     0.0535127  
H        H      0.541800000000     0.356000000000     0.270900000000     0.0535127  
H        H      0.550900000000     0.350000000000     0.435700000000     0.0535127  
H        H      0.892300000000     0.198400000000     0.119400000000     0.0535127  
H        H      0.881000000000     0.216100000000     0.954300000000     0.0535127  
H        H      0.571200000000     0.465800000000     0.964700000000     0.0535127  
H        H      0.571400000000     0.458300000000     0.129300000000     0.0535127  
H        H      0.211400000000     0.275300000000     0.431300000000     0.0535127  
H        H      0.187200000000     0.067500000000     0.424600000000     0.0535127  
H        H      0.307100000000     0.045300000000     0.157900000000     0.0535127  
H        H      0.323800000000     0.251700000000     0.158200000000     0.0535127  
H        H      0.666600000000     0.629200000000     0.447700000000     0.0535127  
H        H      0.882500000000     0.631400000000     0.448900000000     0.0535127  
H        H      0.874500000000     0.693000000000     0.161000000000     0.0535127  
H        H      0.659600000000     0.685500000000     0.162000000000     0.0535127  
H        H      0.084000000000     0.686500000000     0.570400000000     0.0535127  
H        H      0.078800000000     0.690700000000     0.733200000000     0.0535127  
H        H      0.458200000000     0.644000000000     0.729100000000     0.0535127  
H        H      0.449100000000     0.650000000000     0.564300000000     0.0535127  
H        H      0.107700000000     0.801600000000     0.880600000000     0.0535127  
H        H      0.119000000000     0.783900000000     0.045700000000     0.0535127  
H        H      0.428800000000     0.534200000000     0.035300000000     0.0535127  
H        H      0.428600000000     0.541700000000     0.870700000000     0.0535127  
C        C      0.713000000000     0.577800000000     0.700400000000     0.0328689  
C        C      0.724800000000     0.712100000000     0.700900000000     0.0328689  
C        C      0.767000000000     0.770000000000     0.625500000000     0.0328689  
C        C      0.778000000000     0.896000000000     0.628400000000     0.0328689  
C        C      0.742200000000     0.963200000000     0.704000000000     0.0328689  
C        C      0.709000000000     0.908000000000     0.785500000000     0.0328689  
C        C      0.700000000000     0.786000000000     0.785200000000     0.0328689  
C        C      0.747200000000     0.100200000000     0.703600000000     0.0328689  
C        C      0.492700000000     0.349800000000     0.695600000000     0.0328689  
C        C      0.356100000000     0.347200000000     0.694200000000     0.0328689  
C        C      0.290700000000     0.359800000000     0.610000000000     0.0328689  
C        C      0.162600000000     0.356600000000     0.608700000000     0.0328689  
C        C      0.102300000000     0.335300000000     0.694200000000     0.0328689  
C        C      0.167500000000     0.320300000000     0.781500000000     0.0328689  
C        C      0.294700000000     0.325500000000     0.780600000000     0.0328689  
C        C      0.965400000000     0.330800000000     0.694100000000     0.0328689  
C        C      0.839300000000     0.321700000000     0.396600000000     0.0328689  
C        C      0.843000000000     0.320000000000     0.299700000000     0.0328689  
C        C      0.730900000000     0.334300000000     0.249200000000     0.0328689  
C        C      0.620400000000     0.346400000000     0.301600000000     0.0328689  
C        C      0.626700000000     0.344200000000     0.400300000000     0.0328689  
C        C      0.730900000000     0.333500000000     0.144400000000     0.0328689  
C        C      0.825600000000     0.255100000000     0.090100000000     0.0328689  
C        C      0.816100000000     0.265500000000     0.991100000000     0.0328689  
C        C      0.636600000000     0.410400000000     0.996400000000     0.0328689  
C        C      0.638100000000     0.407000000000     0.095300000000     0.0328689  
C        C      0.287000000000     0.422200000000     0.299600000000     0.0328689  
C        C      0.275200000000     0.287900000000     0.299100000000     0.0328689  
C        C      0.233000000000     0.230000000000     0.374500000000     0.0328689  
C        C      0.222000000000     0.104000000000     0.371600000000     0.0328689  
C        C      0.257800000000     0.036800000000     0.296000000000     0.0328689  
C        C      0.291000000000     0.092000000000     0.214500000000     0.0328689  
C        C      0.300000000000     0.214000000000     0.214800000000     0.0328689  
C        C      0.252800000000     0.899800000000     0.296400000000     0.0328689  
C        C      0.507300000000     0.650200000000     0.304400000000     0.0328689  
C        C      0.643900000000     0.652800000000     0.305800000000     0.0328689  
C        C      0.709300000000     0.640200000000     0.390000000000     0.0328689  
C        C      0.837400000000     0.643400000000     0.391300000000     0.0328689  
C        C      0.897700000000     0.664700000000     0.305800000000     0.0328689  
C        C      0.832500000000     0.679700000000     0.218500000000     0.0328689  
C        C      0.705300000000     0.674500000000     0.219400000000     0.0328689  
C        C      0.034600000000     0.669200000000     0.305900000000     0.0328689  
C        C      0.160700000000     0.678300000000     0.603400000000     0.0328689  
C        C      0.157000000000     0.680000000000     0.700300000000     0.0328689  
C        C      0.269100000000     0.665700000000     0.750800000000     0.0328689  
C        C      0.379600000000     0.653600000000     0.698400000000     0.0328689  
C        C      0.373300000000     0.655800000000     0.599700000000     0.0328689  
C        C      0.269100000000     0.666500000000     0.855600000000     0.0328689  
C        C      0.174400000000     0.744900000000     0.909900000000     0.0328689  
C        C      0.183900000000     0.734500000000     0.008900000000     0.0328689  
C        C      0.363400000000     0.589600000000     0.003600000000     0.0328689  
C        C      0.361900000000     0.593000000000     0.904700000000     0.0328689  
N        N      0.732200000000     0.334400000000     0.446800000000    -0.160532   
N        N      0.725900000000     0.336900000000     0.946200000000    -0.160532   
N        N      0.267800000000     0.665600000000     0.553200000000    -0.160532   
N        N      0.274100000000     0.663100000000     0.053800000000    -0.160532   
O        O      0.708500000000     0.523200000000     0.778500000000    -0.291273   
O        O      0.708700000000     0.528100000000     0.621600000000    -0.291273   
O        O      0.750300000000     0.154100000000     0.625400000000    -0.291273   
O        O      0.749000000000     0.150400000000     0.781600000000    -0.291273   
O        O      0.543300000000     0.349900000000     0.774600000000    -0.291273   
O        O      0.545600000000     0.353200000000     0.614300000000    -0.291273   
O        O      0.914700000000     0.328800000000     0.613100000000    -0.291273   
O        O      0.911000000000     0.324100000000     0.773500000000    -0.291273   
O        O      0.291500000000     0.476800000000     0.221500000000    -0.291273   
O        O      0.291300000000     0.471900000000     0.378400000000    -0.291273   
O        O      0.249700000000     0.845900000000     0.374600000000    -0.291273   
O        O      0.251000000000     0.849600000000     0.218400000000    -0.291273   
O        O      0.456700000000     0.650100000000     0.225400000000    -0.291273   
O        O      0.454400000000     0.646800000000     0.385700000000    -0.291273   
O        O      0.085300000000     0.671200000000     0.386900000000    -0.291273   
O        O      0.089000000000     0.675900000000     0.226500000000    -0.291273   


