data_EDUSIF_original

_audit_creation_method RASPA-1.0
_audit_creation_date 2022-1-30
_audit_author_name 'Felipe Lopes de Oliveira <felipe.lopes.oliveira@ibm.com>'

_cell_length_a    18.266
_cell_length_b    18.266
_cell_length_c    18.266
_cell_angle_alpha 60
_cell_angle_beta  60
_cell_angle_gamma 60
_cell_volume      4309.39

_symmetry_cell_setting          triclinic
_symmetry_space_group_name_Hall 'P 1'
_symmetry_space_group_name_H-M  'P 1'
_symmetry_Int_Tables_number     1

_symmetry_equiv_pos_as_xyz 'x,y,z'

loop_
_atom_site_label
_atom_site_type_symbol
_atom_site_fract_x
_atom_site_fract_y
_atom_site_fract_z
_atom_site_charge
Zn       Zn     0.293380000000     0.293380000000     0.293380000000     0.472781   
Zn       Zn     0.293380000000     0.293380000000     0.119860000000     0.472781   
Zn       Zn     0.293380000000     0.119860000000     0.293380000000     0.472781   
Zn       Zn     0.119860000000     0.293380000000     0.293380000000     0.472781   
Zn       Zn     0.706620000000     0.706620000000     0.706620000000     0.472781   
Zn       Zn     0.706620000000     0.706620000000     0.880140000000     0.472781   
Zn       Zn     0.880140000000     0.706620000000     0.706620000000     0.472781   
Zn       Zn     0.706620000000     0.880140000000     0.706620000000     0.472781   
H        H      0.154600000000     0.455200000000     0.455200000000     0.0639547  
H        H      0.455200000000     0.154600000000     0.935000000000     0.0639547  
H        H      0.455200000000     0.935000000000     0.154600000000     0.0639547  
H        H      0.935000000000     0.455200000000     0.455200000000     0.0639547  
H        H      0.154600000000     0.455200000000     0.935000000000     0.0639547  
H        H      0.455200000000     0.935000000000     0.455200000000     0.0639547  
H        H      0.455200000000     0.154600000000     0.455200000000     0.0639547  
H        H      0.935000000000     0.455200000000     0.154600000000     0.0639547  
H        H      0.154600000000     0.935000000000     0.455200000000     0.0639547  
H        H      0.455200000000     0.455200000000     0.154600000000     0.0639547  
H        H      0.455200000000     0.455200000000     0.935000000000     0.0639547  
H        H      0.935000000000     0.154600000000     0.455200000000     0.0639547  
H        H      0.544800000000     0.845400000000     0.544800000000     0.0639547  
H        H      0.845400000000     0.544800000000     0.065000000000     0.0639547  
H        H      0.065000000000     0.544800000000     0.845400000000     0.0639547  
H        H      0.544800000000     0.065000000000     0.544800000000     0.0639547  
H        H      0.544800000000     0.845400000000     0.065000000000     0.0639547  
H        H      0.065000000000     0.544800000000     0.544800000000     0.0639547  
H        H      0.845400000000     0.544800000000     0.544800000000     0.0639547  
H        H      0.544800000000     0.065000000000     0.845400000000     0.0639547  
H        H      0.065000000000     0.845400000000     0.544800000000     0.0639547  
H        H      0.544800000000     0.544800000000     0.845400000000     0.0639547  
H        H      0.544800000000     0.544800000000     0.065000000000     0.0639547  
H        H      0.845400000000     0.065000000000     0.544800000000     0.0639547  
C        C      0.092700000000     0.473100000000     0.473100000000     0.0479265  
C        C      0.473100000000     0.092700000000     0.961100000000     0.0479265  
C        C      0.473100000000     0.961100000000     0.092700000000     0.0479265  
C        C      0.961100000000     0.473100000000     0.473100000000     0.0479265  
C        C      0.092700000000     0.473100000000     0.961100000000     0.0479265  
C        C      0.473100000000     0.961100000000     0.473100000000     0.0479265  
C        C      0.473100000000     0.092700000000     0.473100000000     0.0479265  
C        C      0.961100000000     0.473100000000     0.092700000000     0.0479265  
C        C      0.092700000000     0.961100000000     0.473100000000     0.0479265  
C        C      0.473100000000     0.473100000000     0.092700000000     0.0479265  
C        C      0.473100000000     0.473100000000     0.961100000000     0.0479265  
C        C      0.961100000000     0.092700000000     0.473100000000     0.0479265  
C        C      0.526900000000     0.907300000000     0.526900000000     0.0479265  
C        C      0.907300000000     0.526900000000     0.038900000000     0.0479265  
C        C      0.038900000000     0.526900000000     0.907300000000     0.0479265  
C        C      0.526900000000     0.038900000000     0.526900000000     0.0479265  
C        C      0.526900000000     0.907300000000     0.038900000000     0.0479265  
C        C      0.038900000000     0.526900000000     0.526900000000     0.0479265  
C        C      0.907300000000     0.526900000000     0.526900000000     0.0479265  
C        C      0.526900000000     0.038900000000     0.907300000000     0.0479265  
C        C      0.038900000000     0.907300000000     0.526900000000     0.0479265  
C        C      0.526900000000     0.526900000000     0.907300000000     0.0479265  
C        C      0.526900000000     0.526900000000     0.038900000000     0.0479265  
C        C      0.907300000000     0.038900000000     0.526900000000     0.0479265  
C        C      0.111300000000     0.388700000000     0.388700000000     0.0479265  
C        C      0.053800000000     0.446200000000     0.446200000000     0.0479265  
C        C      0.388700000000     0.111300000000     0.111300000000     0.0479265  
C        C      0.446200000000     0.053800000000     0.053800000000     0.0479265  
C        C      0.111300000000     0.388700000000     0.111300000000     0.0479265  
C        C      0.053800000000     0.446200000000     0.053800000000     0.0479265  
C        C      0.388700000000     0.111300000000     0.388700000000     0.0479265  
C        C      0.446200000000     0.053800000000     0.446200000000     0.0479265  
C        C      0.111300000000     0.111300000000     0.388700000000     0.0479265  
C        C      0.053800000000     0.053800000000     0.446200000000     0.0479265  
C        C      0.388700000000     0.388700000000     0.111300000000     0.0479265  
C        C      0.446200000000     0.446200000000     0.053800000000     0.0479265  
C        C      0.611300000000     0.888700000000     0.611300000000     0.0479265  
C        C      0.553800000000     0.946200000000     0.553800000000     0.0479265  
C        C      0.888700000000     0.611300000000     0.888700000000     0.0479265  
C        C      0.946200000000     0.553800000000     0.946200000000     0.0479265  
C        C      0.611300000000     0.888700000000     0.888700000000     0.0479265  
C        C      0.553800000000     0.946200000000     0.946200000000     0.0479265  
C        C      0.888700000000     0.611300000000     0.611300000000     0.0479265  
C        C      0.946200000000     0.553800000000     0.553800000000     0.0479265  
C        C      0.888700000000     0.888700000000     0.611300000000     0.0479265  
C        C      0.946200000000     0.946200000000     0.553800000000     0.0479265  
C        C      0.611300000000     0.611300000000     0.888700000000     0.0479265  
C        C      0.553800000000     0.553800000000     0.946200000000     0.0479265  
O        O      0.250000000000     0.250000000000     0.250000000000    -0.292986   
O        O      0.750000000000     0.750000000000     0.750000000000    -0.292986   
O        O      0.197770000000     0.366000000000     0.366000000000    -0.292986   
O        O      0.366000000000     0.197770000000     0.070230000000    -0.292986   
O        O      0.366000000000     0.070230000000     0.197770000000    -0.292986   
O        O      0.070230000000     0.366000000000     0.366000000000    -0.292986   
O        O      0.197770000000     0.366000000000     0.070230000000    -0.292986   
O        O      0.366000000000     0.070230000000     0.366000000000    -0.292986   
O        O      0.366000000000     0.197770000000     0.366000000000    -0.292986   
O        O      0.070230000000     0.366000000000     0.197770000000    -0.292986   
O        O      0.197770000000     0.070230000000     0.366000000000    -0.292986   
O        O      0.366000000000     0.366000000000     0.197770000000    -0.292986   
O        O      0.366000000000     0.366000000000     0.070230000000    -0.292986   
O        O      0.070230000000     0.197770000000     0.366000000000    -0.292986   
O        O      0.634000000000     0.802230000000     0.634000000000    -0.292986   
O        O      0.802230000000     0.634000000000     0.929770000000    -0.292986   
O        O      0.929770000000     0.634000000000     0.802230000000    -0.292986   
O        O      0.634000000000     0.929770000000     0.634000000000    -0.292986   
O        O      0.634000000000     0.802230000000     0.929770000000    -0.292986   
O        O      0.929770000000     0.634000000000     0.634000000000    -0.292986   
O        O      0.802230000000     0.634000000000     0.634000000000    -0.292986   
O        O      0.634000000000     0.929770000000     0.802230000000    -0.292986   
O        O      0.929770000000     0.802230000000     0.634000000000    -0.292986   
O        O      0.634000000000     0.634000000000     0.802230000000    -0.292986   
O        O      0.634000000000     0.634000000000     0.929770000000    -0.292986   
O        O      0.802230000000     0.929770000000     0.634000000000    -0.292986   


