data_EGELUY01_original

_audit_creation_method RASPA-1.0
_audit_creation_date 2022-1-28
_audit_author_name 'Felipe Lopes de Oliveira <felipe.lopes.oliveira@ibm.com>'

_cell_length_a    6.64776
_cell_length_b    11.0847
_cell_length_c    11.0878
_cell_angle_alpha 93.9911
_cell_angle_beta  107.444
_cell_angle_gamma 107.393
_cell_volume      732.372

_symmetry_cell_setting          triclinic
_symmetry_space_group_name_Hall 'P 1'
_symmetry_space_group_name_H-M  'P 1'
_symmetry_Int_Tables_number     1

_symmetry_equiv_pos_as_xyz 'x,y,z'

loop_
_atom_site_label
_atom_site_type_symbol
_atom_site_fract_x
_atom_site_fract_y
_atom_site_fract_z
_atom_site_charge
Al       Al     0.994185000000     0.002875000000     0.499621000000     18.1863    
Al       Al     0.492963000000     0.003336000000     0.500221000000     18.1863    
H        H      0.610889000000     0.001803000000     0.884530000000     0.400907   
H        H      0.264328000000     0.387596000000     0.502882000000     0.400907   
H        H      0.377974000000     0.618285000000     0.497732000000     0.400907   
H        H      0.725604000000     0.998362000000     0.115390000000     0.400907   
H        H      0.376365000000     0.998675000000     0.114442000000     0.400907   
H        H      0.727284000000     0.618932000000     0.497800000000     0.400907   
H        H      0.613648000000     0.388402000000     0.502850000000     0.400907   
H        H      0.261629000000     0.002116000000     0.883482000000     0.400907   
H        H      0.359097000000     0.119086000000     0.616381000000     0.400907   
H        H      0.624586000000     0.887877000000     0.382491000000     0.400907   
C        C      0.777905000000     0.001691000000     0.933353000000     0.548342   
C        C      0.146370000000     0.436907000000     0.502199000000     0.548342   
C        C      0.211398000000     0.569577000000     0.498569000000     0.548342   
C        C      0.843543000000     0.999001000000     0.066123000000     0.548342   
C        C      0.209738000000     0.999477000000     0.065669000000     0.548342   
C        C      0.845272000000     0.569661000000     0.498543000000     0.548342   
C        C      0.780264000000     0.437051000000     0.502153000000     0.548342   
C        C      0.144071000000     0.002127000000     0.932839000000     0.548342   
C        C      0.058573000000     0.997625000000     0.134801000000     0.548342   
C        C      0.129942000000     0.997135000000     0.277411000000     0.548342   
C        C      0.059682000000     0.638115000000     0.496251000000     0.548342   
C        C      0.130022000000     0.780535000000     0.494331000000     0.548342   
C        C      0.927547000000     0.367825000000     0.504321000000     0.548342   
C        C      0.856330000000     0.225346000000     0.505961000000     0.548342   
C        C      0.925358000000     0.003996000000     0.864271000000     0.548342   
C        C      0.855010000000     0.006766000000     0.722041000000     0.548342   
O        O      0.000729000000     0.007164000000     0.663570000000    -4.91551    
O        O      0.656247000000     0.167436000000     0.506322000000    -4.91551    
O        O      0.987958000000     0.838884000000     0.494211000000    -4.91551    
O        O      0.334830000000     0.998753000000     0.336040000000    -4.91551    
O        O      0.988156000000     0.997044000000     0.335751000000    -4.91551    
O        O      0.334520000000     0.839443000000     0.494510000000    -4.91551    
O        O      0.001519000000     0.167104000000     0.505430000000    -4.91551    
O        O      0.655397000000     0.008016000000     0.664182000000    -4.91551    
O        O      0.688364000000     0.950557000000     0.446691000000    -4.91551    
O        O      0.295915000000     0.056275000000     0.551771000000    -4.91551    


