data_EGELUY_original

_audit_creation_method RASPA-1.0
_audit_creation_date 2022-1-29
_audit_author_name 'Felipe Lopes de Oliveira <felipe.lopes.oliveira@ibm.com>'

_cell_length_a    6.6352
_cell_length_b    13.4943
_cell_length_c    16.243
_cell_angle_alpha 90
_cell_angle_beta  90
_cell_angle_gamma 90
_cell_volume      1454.36

_symmetry_cell_setting          triclinic
_symmetry_space_group_name_Hall 'P 1'
_symmetry_space_group_name_H-M  'P 1'
_symmetry_Int_Tables_number     1

_symmetry_equiv_pos_as_xyz 'x,y,z'

loop_
_atom_site_label
_atom_site_type_symbol
_atom_site_fract_x
_atom_site_fract_y
_atom_site_fract_z
_atom_site_charge
Al       Al     0.000660000000     0.000690000000     0.999720000000     19.5774    
Al       Al     0.993960000000     0.501240000000     0.499260000000     19.5774    
Al       Al     0.494800000000     0.000830000000     0.999840000000     19.5774    
Al       Al     0.494310000000     0.500470000000     0.499590000000     19.5774    
H        H      0.922190000000     0.800170000000     0.185820000000     0.333427   
H        H      0.922010000000     0.691610000000     0.306390000000     0.333427   
H        H      0.069150000000     0.302190000000     0.313920000000     0.333427   
H        H      0.072620000000     0.190450000000     0.195320000000     0.333427   
H        H      0.422140000000     0.200560000000     0.812540000000     0.333427   
H        H      0.422030000000     0.310160000000     0.692620000000     0.333427   
H        H      0.569110000000     0.697260000000     0.686850000000     0.333427   
H        H      0.572640000000     0.809160000000     0.805400000000     0.333427   
H        H      0.070850000000     0.200270000000     0.812330000000     0.333427   
H        H      0.070770000000     0.310180000000     0.692340000000     0.333427   
H        H      0.920450000000     0.699020000000     0.688690000000     0.333427   
H        H      0.923890000000     0.810900000000     0.807310000000     0.333427   
H        H      0.570860000000     0.800470000000     0.186090000000     0.333427   
H        H      0.570790000000     0.691590000000     0.306720000000     0.333427   
H        H      0.420450000000     0.300510000000     0.312090000000     0.333427   
H        H      0.423840000000     0.188780000000     0.193410000000     0.333427   
H        H      0.743400000000     0.617910000000     0.497410000000     0.333427   
H        H      0.243410000000     0.384040000000     0.497090000000     0.333427   
H        H      0.247300000000     0.119710000000     0.002030000000     0.333427   
C        C      0.064950000000     0.777200000000     0.211490000000     0.611199   
C        C      0.064820000000     0.714820000000     0.280990000000     0.611199   
C        C      0.927140000000     0.278330000000     0.288110000000     0.611199   
C        C      0.929180000000     0.214190000000     0.219780000000     0.611199   
C        C      0.564950000000     0.223390000000     0.786790000000     0.611199   
C        C      0.564820000000     0.286480000000     0.717770000000     0.611199   
C        C      0.427120000000     0.721050000000     0.712700000000     0.611199   
C        C      0.429160000000     0.785320000000     0.781010000000     0.611199   
C        C      0.928090000000     0.223210000000     0.786640000000     0.611199   
C        C      0.927980000000     0.286450000000     0.717600000000     0.611199   
C        C      0.063980000000     0.722000000000     0.713670000000     0.611199   
C        C      0.066000000000     0.786270000000     0.782040000000     0.611199   
C        C      0.428110000000     0.777410000000     0.211670000000     0.611199   
C        C      0.428010000000     0.714860000000     0.281180000000     0.611199   
C        C      0.563920000000     0.277420000000     0.287140000000     0.611199   
C        C      0.565950000000     0.213280000000     0.218740000000     0.611199   
C        C      0.246320000000     0.810100000000     0.175820000000     0.611199   
C        C      0.246340000000     0.682710000000     0.317250000000     0.611199   
C        C      0.246040000000     0.881360000000     0.104380000000     0.611199   
C        C      0.245480000000     0.613850000000     0.390260000000     0.611199   
C        C      0.744690000000     0.311770000000     0.322590000000     0.611199   
C        C      0.748730000000     0.181240000000     0.183360000000     0.611199   
C        C      0.743450000000     0.383920000000     0.393300000000     0.611199   
C        C      0.750450000000     0.112660000000     0.110280000000     0.611199   
C        C      0.746330000000     0.189690000000     0.822000000000     0.611199   
C        C      0.746330000000     0.318800000000     0.681570000000     0.611199   
C        C      0.746060000000     0.117800000000     0.893000000000     0.611199   
C        C      0.745470000000     0.387840000000     0.608630000000     0.611199   
C        C      0.244650000000     0.687690000000     0.678060000000     0.611199   
C        C      0.248760000000     0.818580000000     0.817370000000     0.611199   
C        C      0.243530000000     0.616310000000     0.606700000000     0.611199   
C        C      0.250430000000     0.888010000000     0.890140000000     0.611199   
O        O      0.074140000000     0.910000000000     0.074920000000    -5.21015    
O        O      0.073650000000     0.585330000000     0.419530000000    -5.21015    
O        O      0.914730000000     0.414620000000     0.421510000000    -5.21015    
O        O      0.923680000000     0.083910000000     0.081110000000    -5.21015    
O        O      0.572840000000     0.089030000000     0.922250000000    -5.21015    
O        O      0.573610000000     0.416360000000     0.579360000000    -5.21015    
O        O      0.414680000000     0.586000000000     0.578140000000    -5.21015    
O        O      0.422380000000     0.916620000000     0.919320000000    -5.21015    
O        O      0.918570000000     0.086360000000     0.920560000000    -5.21015    
O        O      0.916700000000     0.416960000000     0.579150000000    -5.21015    
O        O      0.071950000000     0.587210000000     0.577710000000    -5.21015    
O        O      0.079140000000     0.916800000000     0.919730000000    -5.21015    
O        O      0.417220000000     0.913080000000     0.076990000000    -5.21015    
O        O      0.416690000000     0.584710000000     0.419730000000    -5.21015    
O        O      0.571950000000     0.413390000000     0.421940000000    -5.21015    
O        O      0.577950000000     0.084290000000     0.080290000000    -5.21015    
O        O      0.247360000000     0.055670000000     0.001010000000    -5.21015    
O        O      0.743800000000     0.554060000000     0.498400000000    -5.21015    
O        O      0.747650000000     0.960020000000     0.999350000000    -5.21015    
O        O      0.243810000000     0.447860000000     0.498690000000    -5.21015    


