data_EMITUQ_original

_audit_creation_method RASPA-1.0
_audit_creation_date 2022-1-29
_audit_author_name 'Felipe Lopes de Oliveira <felipe.lopes.oliveira@ibm.com>'

_cell_length_a    13.961
_cell_length_b    19.601
_cell_length_c    22.649
_cell_angle_alpha 90
_cell_angle_beta  90
_cell_angle_gamma 101.374
_cell_volume      6076.17

_symmetry_cell_setting          triclinic
_symmetry_space_group_name_Hall 'P 1'
_symmetry_space_group_name_H-M  'P 1'
_symmetry_Int_Tables_number     1

_symmetry_equiv_pos_as_xyz 'x,y,z'

loop_
_atom_site_label
_atom_site_type_symbol
_atom_site_fract_x
_atom_site_fract_y
_atom_site_fract_z
_atom_site_charge
Zn       Zn     0.663250000000     0.335050000000     0.990290000000     0.474071   
Zn       Zn     0.877730000000     0.363090000000     0.009130000000     0.474071   
Zn       Zn     0.663250000000     0.835050000000     0.509710000000     0.474071   
Zn       Zn     0.877730000000     0.863090000000     0.490870000000     0.474071   
Zn       Zn     0.336750000000     0.164950000000     0.490290000000     0.474071   
Zn       Zn     0.122270000000     0.136910000000     0.509130000000     0.474071   
Zn       Zn     0.336750000000     0.664950000000     0.009710000000     0.474071   
Zn       Zn     0.122270000000     0.636910000000     0.990870000000     0.474071   
H        H      0.013100000000     0.283700000000     0.065100000000     0.0601347  
H        H      0.642500000000     0.692900000000     0.664900000000     0.0601347  
H        H      0.974500000000     0.614000000000     0.807800000000     0.0601347  
H        H      0.495700000000     0.305700000000     0.073700000000     0.0601347  
H        H      0.176700000000     0.272600000000     0.059300000000     0.0601347  
H        H      0.954800000000     0.534100000000     0.887500000000     0.0601347  
H        H      0.588300000000     0.653300000000     0.392800000000     0.0601347  
H        H      0.569600000000     0.575700000000     0.316800000000     0.0601347  
H        H      0.931800000000     0.763400000000     0.646100000000     0.0601347  
H        H      0.605100000000     0.437600000000     0.145000000000     0.0601347  
H        H      0.891600000000     0.506000000000     0.163700000000     0.0601347  
H        H      0.332200000000     0.309300000000     0.080000000000     0.0601347  
H        H      0.966100000000     0.700400000000     0.724600000000     0.0601347  
H        H      0.876100000000     0.703700000000     0.360100000000     0.0601347  
H        H      0.573900000000     0.498600000000     0.226900000000     0.0601347  
H        H      0.663900000000     0.501900000000     0.869700000000     0.0601347  
H        H      0.062600000000     0.440200000000     0.955700000000     0.0601347  
H        H      0.341300000000     0.378900000000     0.917300000000     0.0601347  
H        H      0.504800000000     0.372500000000     0.912700000000     0.0601347  
H        H      0.226300000000     0.435500000000     0.949400000000     0.0601347  
H        H      0.013100000000     0.783700000000     0.434900000000     0.0601347  
H        H      0.642500000000     0.192900000000     0.835100000000     0.0601347  
H        H      0.974500000000     0.114000000000     0.692200000000     0.0601347  
H        H      0.495700000000     0.805700000000     0.426300000000     0.0601347  
H        H      0.176700000000     0.772600000000     0.440700000000     0.0601347  
H        H      0.954800000000     0.034100000000     0.612500000000     0.0601347  
H        H      0.588300000000     0.153300000000     0.107200000000     0.0601347  
H        H      0.569600000000     0.075700000000     0.183200000000     0.0601347  
H        H      0.931800000000     0.263400000000     0.853900000000     0.0601347  
H        H      0.605100000000     0.937600000000     0.355000000000     0.0601347  
H        H      0.891600000000     0.006000000000     0.336300000000     0.0601347  
H        H      0.332200000000     0.809300000000     0.420000000000     0.0601347  
H        H      0.966100000000     0.200400000000     0.775400000000     0.0601347  
H        H      0.876100000000     0.203700000000     0.139900000000     0.0601347  
H        H      0.573900000000     0.998600000000     0.273100000000     0.0601347  
H        H      0.663900000000     0.001900000000     0.630300000000     0.0601347  
H        H      0.062600000000     0.940200000000     0.544300000000     0.0601347  
H        H      0.341300000000     0.878900000000     0.582700000000     0.0601347  
H        H      0.504800000000     0.872500000000     0.587300000000     0.0601347  
H        H      0.226300000000     0.935500000000     0.550600000000     0.0601347  
H        H      0.986900000000     0.216300000000     0.565100000000     0.0601347  
H        H      0.357500000000     0.807100000000     0.164900000000     0.0601347  
H        H      0.025500000000     0.886000000000     0.307800000000     0.0601347  
H        H      0.504300000000     0.194300000000     0.573700000000     0.0601347  
H        H      0.823300000000     0.227400000000     0.559300000000     0.0601347  
H        H      0.045200000000     0.965900000000     0.387500000000     0.0601347  
H        H      0.411700000000     0.846700000000     0.892800000000     0.0601347  
H        H      0.430400000000     0.924300000000     0.816800000000     0.0601347  
H        H      0.068200000000     0.736600000000     0.146100000000     0.0601347  
H        H      0.394900000000     0.062400000000     0.645000000000     0.0601347  
H        H      0.108400000000     0.994000000000     0.663700000000     0.0601347  
H        H      0.667800000000     0.190700000000     0.580000000000     0.0601347  
H        H      0.033900000000     0.799600000000     0.224600000000     0.0601347  
H        H      0.123900000000     0.796300000000     0.860100000000     0.0601347  
H        H      0.426100000000     0.001400000000     0.726900000000     0.0601347  
H        H      0.336100000000     0.998100000000     0.369700000000     0.0601347  
H        H      0.937400000000     0.059800000000     0.455700000000     0.0601347  
H        H      0.658700000000     0.121100000000     0.417300000000     0.0601347  
H        H      0.495200000000     0.127500000000     0.412700000000     0.0601347  
H        H      0.773700000000     0.064500000000     0.449400000000     0.0601347  
H        H      0.986900000000     0.716300000000     0.934900000000     0.0601347  
H        H      0.357500000000     0.307100000000     0.335100000000     0.0601347  
H        H      0.025500000000     0.386000000000     0.192200000000     0.0601347  
H        H      0.504300000000     0.694300000000     0.926300000000     0.0601347  
H        H      0.823300000000     0.727400000000     0.940700000000     0.0601347  
H        H      0.045200000000     0.465900000000     0.112500000000     0.0601347  
H        H      0.411700000000     0.346700000000     0.607200000000     0.0601347  
H        H      0.430400000000     0.424300000000     0.683200000000     0.0601347  
H        H      0.068200000000     0.236600000000     0.353900000000     0.0601347  
H        H      0.394900000000     0.562400000000     0.855000000000     0.0601347  
H        H      0.108400000000     0.494000000000     0.836300000000     0.0601347  
H        H      0.667800000000     0.690700000000     0.920000000000     0.0601347  
H        H      0.033900000000     0.299600000000     0.275400000000     0.0601347  
H        H      0.123900000000     0.296300000000     0.639900000000     0.0601347  
H        H      0.426100000000     0.501400000000     0.773100000000     0.0601347  
H        H      0.336100000000     0.498100000000     0.130300000000     0.0601347  
H        H      0.937400000000     0.559800000000     0.044300000000     0.0601347  
H        H      0.658700000000     0.621100000000     0.082700000000     0.0601347  
H        H      0.495200000000     0.627500000000     0.087300000000     0.0601347  
H        H      0.773700000000     0.564500000000     0.050600000000     0.0601347  
C        C      0.799700000000     0.455000000000     0.930900000000     0.0170543  
C        C      0.321400000000     0.348800000000     0.002300000000     0.0170543  
C        C      0.828600000000     0.608400000000     0.792800000000     0.0170543  
C        C      0.736600000000     0.571800000000     0.813000000000     0.0170543  
C        C      0.824500000000     0.652400000000     0.744200000000     0.0170543  
C        C      0.217100000000     0.355100000000     0.003900000000     0.0170543  
C        C      0.734900000000     0.686500000000     0.384700000000     0.0170543  
C        C      0.056000000000     0.313300000000     0.040600000000     0.0170543  
C        C      0.711400000000     0.590900000000     0.293000000000     0.0170543  
C        C      0.727000000000     0.652300000000     0.725300000000     0.0170543  
C        C      0.706600000000     0.693200000000     0.676300000000     0.0170543  
C        C      0.783200000000     0.732800000000     0.646600000000     0.0170543  
C        C      0.912300000000     0.592700000000     0.820300000000     0.0170543  
C        C      0.746900000000     0.742200000000     0.430800000000     0.0170543  
C        C      0.803000000000     0.627900000000     0.310200000000     0.0170543  
C        C      0.465300000000     0.320900000000     0.041000000000     0.0170543  
C        C      0.809100000000     0.546800000000     0.221800000000     0.0170543  
C        C      0.154300000000     0.307200000000     0.038500000000     0.0170543  
C        C      0.900000000000     0.543300000000     0.868100000000     0.0170543  
C        C      0.767300000000     0.424200000000     0.093100000000     0.0170543  
C        C      0.642400000000     0.647400000000     0.370900000000     0.0170543  
C        C      0.631400000000     0.601000000000     0.325800000000     0.0170543  
C        C      0.807800000000     0.509300000000     0.885600000000     0.0170543  
C        C      0.750900000000     0.467800000000     0.144800000000     0.0170543  
C        C      0.712000000000     0.543500000000     0.241900000000     0.0170543  
C        C      0.880700000000     0.735100000000     0.666100000000     0.0170543  
C        C      0.656900000000     0.465100000000     0.165000000000     0.0170543  
C        C      0.827700000000     0.506600000000     0.174800000000     0.0170543  
C        C      0.366300000000     0.324500000000     0.045600000000     0.0170543  
C        C      0.901500000000     0.697300000000     0.712800000000     0.0170543  
C        C      0.814700000000     0.676800000000     0.352600000000     0.0170543  
C        C      0.637800000000     0.502100000000     0.213600000000     0.0170543  
C        C      0.764100000000     0.773900000000     0.594300000000     0.0170543  
C        C      0.726000000000     0.524200000000     0.857800000000     0.0170543  
C        C      0.085700000000     0.405800000000     0.976500000000     0.0170543  
C        C      0.372200000000     0.364900000000     0.950200000000     0.0170543  
C        C      0.470700000000     0.359900000000     0.947600000000     0.0170543  
C        C      0.184300000000     0.403900000000     0.972700000000     0.0170543  
C        C      0.799700000000     0.955000000000     0.569100000000     0.0170543  
C        C      0.321400000000     0.848800000000     0.497700000000     0.0170543  
C        C      0.828600000000     0.108400000000     0.707200000000     0.0170543  
C        C      0.736600000000     0.071800000000     0.687000000000     0.0170543  
C        C      0.824500000000     0.152400000000     0.755800000000     0.0170543  
C        C      0.217100000000     0.855100000000     0.496100000000     0.0170543  
C        C      0.734900000000     0.186500000000     0.115300000000     0.0170543  
C        C      0.056000000000     0.813300000000     0.459400000000     0.0170543  
C        C      0.711400000000     0.090900000000     0.207000000000     0.0170543  
C        C      0.727000000000     0.152300000000     0.774700000000     0.0170543  
C        C      0.706600000000     0.193200000000     0.823700000000     0.0170543  
C        C      0.783200000000     0.232800000000     0.853400000000     0.0170543  
C        C      0.912300000000     0.092700000000     0.679700000000     0.0170543  
C        C      0.746900000000     0.242200000000     0.069200000000     0.0170543  
C        C      0.803000000000     0.127900000000     0.189800000000     0.0170543  
C        C      0.465300000000     0.820900000000     0.459000000000     0.0170543  
C        C      0.809100000000     0.046800000000     0.278200000000     0.0170543  
C        C      0.154300000000     0.807200000000     0.461500000000     0.0170543  
C        C      0.900000000000     0.043300000000     0.631900000000     0.0170543  
C        C      0.767300000000     0.924200000000     0.406900000000     0.0170543  
C        C      0.642400000000     0.147400000000     0.129100000000     0.0170543  
C        C      0.631400000000     0.101000000000     0.174200000000     0.0170543  
C        C      0.807800000000     0.009300000000     0.614400000000     0.0170543  
C        C      0.750900000000     0.967800000000     0.355200000000     0.0170543  
C        C      0.712000000000     0.043500000000     0.258100000000     0.0170543  
C        C      0.880700000000     0.235100000000     0.833900000000     0.0170543  
C        C      0.656900000000     0.965100000000     0.335000000000     0.0170543  
C        C      0.827700000000     0.006600000000     0.325200000000     0.0170543  
C        C      0.366300000000     0.824500000000     0.454400000000     0.0170543  
C        C      0.901500000000     0.197300000000     0.787200000000     0.0170543  
C        C      0.814700000000     0.176800000000     0.147400000000     0.0170543  
C        C      0.637800000000     0.002100000000     0.286400000000     0.0170543  
C        C      0.764100000000     0.273900000000     0.905700000000     0.0170543  
C        C      0.726000000000     0.024200000000     0.642200000000     0.0170543  
C        C      0.085700000000     0.905800000000     0.523500000000     0.0170543  
C        C      0.372200000000     0.864900000000     0.549800000000     0.0170543  
C        C      0.470700000000     0.859900000000     0.552400000000     0.0170543  
C        C      0.184300000000     0.903900000000     0.527300000000     0.0170543  
C        C      0.200300000000     0.045000000000     0.430900000000     0.0170543  
C        C      0.678600000000     0.151200000000     0.502300000000     0.0170543  
C        C      0.171400000000     0.891600000000     0.292800000000     0.0170543  
C        C      0.263400000000     0.928200000000     0.313000000000     0.0170543  
C        C      0.175500000000     0.847600000000     0.244200000000     0.0170543  
C        C      0.782900000000     0.144900000000     0.503900000000     0.0170543  
C        C      0.265100000000     0.813500000000     0.884700000000     0.0170543  
C        C      0.944000000000     0.186700000000     0.540600000000     0.0170543  
C        C      0.288600000000     0.909100000000     0.793000000000     0.0170543  
C        C      0.273000000000     0.847700000000     0.225300000000     0.0170543  
C        C      0.293400000000     0.806800000000     0.176300000000     0.0170543  
C        C      0.216800000000     0.767200000000     0.146600000000     0.0170543  
C        C      0.087700000000     0.907300000000     0.320300000000     0.0170543  
C        C      0.253100000000     0.757800000000     0.930800000000     0.0170543  
C        C      0.197000000000     0.872100000000     0.810200000000     0.0170543  
C        C      0.534700000000     0.179100000000     0.541000000000     0.0170543  
C        C      0.190900000000     0.953200000000     0.721800000000     0.0170543  
C        C      0.845700000000     0.192800000000     0.538500000000     0.0170543  
C        C      0.100000000000     0.956700000000     0.368100000000     0.0170543  
C        C      0.232700000000     0.075800000000     0.593100000000     0.0170543  
C        C      0.357600000000     0.852600000000     0.870900000000     0.0170543  
C        C      0.368600000000     0.899000000000     0.825800000000     0.0170543  
C        C      0.192200000000     0.990700000000     0.385600000000     0.0170543  
C        C      0.249100000000     0.032200000000     0.644800000000     0.0170543  
C        C      0.288000000000     0.956500000000     0.741900000000     0.0170543  
C        C      0.119300000000     0.764900000000     0.166100000000     0.0170543  
C        C      0.343100000000     0.034900000000     0.665000000000     0.0170543  
C        C      0.172300000000     0.993400000000     0.674800000000     0.0170543  
C        C      0.633700000000     0.175500000000     0.545600000000     0.0170543  
C        C      0.098500000000     0.802700000000     0.212800000000     0.0170543  
C        C      0.185300000000     0.823200000000     0.852600000000     0.0170543  
C        C      0.362200000000     0.997900000000     0.713600000000     0.0170543  
C        C      0.235900000000     0.726100000000     0.094300000000     0.0170543  
C        C      0.274000000000     0.975800000000     0.357800000000     0.0170543  
C        C      0.914300000000     0.094200000000     0.476500000000     0.0170543  
C        C      0.627800000000     0.135100000000     0.450200000000     0.0170543  
C        C      0.529300000000     0.140100000000     0.447600000000     0.0170543  
C        C      0.815700000000     0.096100000000     0.472700000000     0.0170543  
C        C      0.200300000000     0.545000000000     0.069100000000     0.0170543  
C        C      0.678600000000     0.651200000000     0.997700000000     0.0170543  
C        C      0.171400000000     0.391600000000     0.207200000000     0.0170543  
C        C      0.263400000000     0.428200000000     0.187000000000     0.0170543  
C        C      0.175500000000     0.347600000000     0.255800000000     0.0170543  
C        C      0.782900000000     0.644900000000     0.996100000000     0.0170543  
C        C      0.265100000000     0.313500000000     0.615300000000     0.0170543  
C        C      0.944000000000     0.686700000000     0.959400000000     0.0170543  
C        C      0.288600000000     0.409100000000     0.707000000000     0.0170543  
C        C      0.273000000000     0.347700000000     0.274700000000     0.0170543  
C        C      0.293400000000     0.306800000000     0.323700000000     0.0170543  
C        C      0.216800000000     0.267200000000     0.353400000000     0.0170543  
C        C      0.087700000000     0.407300000000     0.179700000000     0.0170543  
C        C      0.253100000000     0.257800000000     0.569200000000     0.0170543  
C        C      0.197000000000     0.372100000000     0.689800000000     0.0170543  
C        C      0.534700000000     0.679100000000     0.959000000000     0.0170543  
C        C      0.190900000000     0.453200000000     0.778200000000     0.0170543  
C        C      0.845700000000     0.692800000000     0.961500000000     0.0170543  
C        C      0.100000000000     0.456700000000     0.131900000000     0.0170543  
C        C      0.232700000000     0.575800000000     0.906900000000     0.0170543  
C        C      0.357600000000     0.352600000000     0.629100000000     0.0170543  
C        C      0.368600000000     0.399000000000     0.674200000000     0.0170543  
C        C      0.192200000000     0.490700000000     0.114400000000     0.0170543  
C        C      0.249100000000     0.532200000000     0.855200000000     0.0170543  
C        C      0.288000000000     0.456500000000     0.758100000000     0.0170543  
C        C      0.119300000000     0.264900000000     0.333900000000     0.0170543  
C        C      0.343100000000     0.534900000000     0.835000000000     0.0170543  
C        C      0.172300000000     0.493400000000     0.825200000000     0.0170543  
C        C      0.633700000000     0.675500000000     0.954400000000     0.0170543  
C        C      0.098500000000     0.302700000000     0.287200000000     0.0170543  
C        C      0.185300000000     0.323200000000     0.647400000000     0.0170543  
C        C      0.362200000000     0.497900000000     0.786400000000     0.0170543  
C        C      0.235900000000     0.226100000000     0.405700000000     0.0170543  
C        C      0.274000000000     0.475800000000     0.142200000000     0.0170543  
C        C      0.914300000000     0.594200000000     0.023500000000     0.0170543  
C        C      0.627800000000     0.635100000000     0.049800000000     0.0170543  
C        C      0.529300000000     0.640100000000     0.052400000000     0.0170543  
C        C      0.815700000000     0.596100000000     0.027300000000     0.0170543  
S        S      0.643410000000     0.596380000000     0.768800000000     0.30686    
S        S      0.893800000000     0.606370000000     0.262810000000     0.30686    
S        S      0.643410000000     0.096380000000     0.731200000000     0.30686    
S        S      0.893800000000     0.106370000000     0.237190000000     0.30686    
S        S      0.356590000000     0.903620000000     0.268800000000     0.30686    
S        S      0.106200000000     0.893630000000     0.762810000000     0.30686    
S        S      0.356590000000     0.403620000000     0.231200000000     0.30686    
S        S      0.106200000000     0.393630000000     0.737190000000     0.30686    
N        N      0.022300000000     0.360700000000     0.008300000000    -0.159634   
N        N      0.518000000000     0.338100000000     0.992700000000    -0.159634   
N        N      0.022300000000     0.860700000000     0.491700000000    -0.159634   
N        N      0.518000000000     0.838100000000     0.507300000000    -0.159634   
N        N      0.977700000000     0.139300000000     0.508300000000    -0.159634   
N        N      0.482000000000     0.161900000000     0.492700000000    -0.159634   
N        N      0.977700000000     0.639300000000     0.991700000000    -0.159634   
N        N      0.482000000000     0.661900000000     0.007300000000    -0.159634   
O        O      0.670300000000     0.751100000000     0.459300000000    -0.257779   
O        O      0.858100000000     0.425600000000     0.077900000000    -0.257779   
O        O      0.711800000000     0.423200000000     0.943800000000    -0.257779   
O        O      0.831100000000     0.780800000000     0.439300000000    -0.257779   
O        O      0.875800000000     0.441400000000     0.953100000000    -0.257779   
O        O      0.694200000000     0.392600000000     0.065800000000    -0.257779   
O        O      0.677000000000     0.779400000000     0.582500000000    -0.257779   
O        O      0.838700000000     0.799400000000     0.562600000000    -0.257779   
O        O      0.957900000000     0.568600000000     0.298000000000    -0.257779   
O        O      0.584400000000     0.632800000000     0.802500000000    -0.257779   
O        O      0.597900000000     0.536300000000     0.734000000000    -0.257779   
O        O      0.936000000000     0.666400000000     0.226800000000    -0.257779   
O        O      0.670300000000     0.251100000000     0.040700000000    -0.257779   
O        O      0.858100000000     0.925600000000     0.422100000000    -0.257779   
O        O      0.711800000000     0.923200000000     0.556200000000    -0.257779   
O        O      0.831100000000     0.280800000000     0.060700000000    -0.257779   
O        O      0.875800000000     0.941400000000     0.546900000000    -0.257779   
O        O      0.694200000000     0.892600000000     0.434200000000    -0.257779   
O        O      0.677000000000     0.279400000000     0.917500000000    -0.257779   
O        O      0.838700000000     0.299400000000     0.937400000000    -0.257779   
O        O      0.957900000000     0.068600000000     0.202000000000    -0.257779   
O        O      0.584400000000     0.132800000000     0.697500000000    -0.257779   
O        O      0.597900000000     0.036300000000     0.766000000000    -0.257779   
O        O      0.936000000000     0.166400000000     0.273200000000    -0.257779   
O        O      0.329700000000     0.748900000000     0.959300000000    -0.257779   
O        O      0.141900000000     0.074400000000     0.577900000000    -0.257779   
O        O      0.288200000000     0.076800000000     0.443800000000    -0.257779   
O        O      0.168900000000     0.719200000000     0.939300000000    -0.257779   
O        O      0.124200000000     0.058600000000     0.453100000000    -0.257779   
O        O      0.305800000000     0.107400000000     0.565800000000    -0.257779   
O        O      0.323000000000     0.720600000000     0.082500000000    -0.257779   
O        O      0.161300000000     0.700600000000     0.062600000000    -0.257779   
O        O      0.042100000000     0.931400000000     0.798000000000    -0.257779   
O        O      0.415600000000     0.867200000000     0.302500000000    -0.257779   
O        O      0.402100000000     0.963700000000     0.234000000000    -0.257779   
O        O      0.064000000000     0.833600000000     0.726800000000    -0.257779   
O        O      0.329700000000     0.248900000000     0.540700000000    -0.257779   
O        O      0.141900000000     0.574400000000     0.922100000000    -0.257779   
O        O      0.288200000000     0.576800000000     0.056200000000    -0.257779   
O        O      0.168900000000     0.219200000000     0.560700000000    -0.257779   
O        O      0.124200000000     0.558600000000     0.046900000000    -0.257779   
O        O      0.305800000000     0.607400000000     0.934200000000    -0.257779   
O        O      0.323000000000     0.220600000000     0.417500000000    -0.257779   
O        O      0.161300000000     0.200600000000     0.437400000000    -0.257779   
O        O      0.042100000000     0.431400000000     0.702000000000    -0.257779   
O        O      0.415600000000     0.367200000000     0.197500000000    -0.257779   
O        O      0.402100000000     0.463700000000     0.266000000000    -0.257779   
O        O      0.064000000000     0.333600000000     0.773200000000    -0.257779   


