data_ESEVIH_original

_audit_creation_method RASPA-1.0
_audit_creation_date 2022-1-29
_audit_author_name 'Felipe Lopes de Oliveira <felipe.lopes.oliveira@ibm.com>'

_cell_length_a    11.6695
_cell_length_b    16.3235
_cell_length_c    16.3235
_cell_angle_alpha 90
_cell_angle_beta  90
_cell_angle_gamma 90
_cell_volume      3109.42

_symmetry_cell_setting          triclinic
_symmetry_space_group_name_Hall 'P 1'
_symmetry_space_group_name_H-M  'P 1'
_symmetry_Int_Tables_number     1

_symmetry_equiv_pos_as_xyz 'x,y,z'

loop_
_atom_site_label
_atom_site_type_symbol
_atom_site_fract_x
_atom_site_fract_y
_atom_site_fract_z
_atom_site_charge
Zn       Zn     0.135610000000     0.386100000000     0.347430000000     0.487378   
Zn       Zn     0.135610000000     0.613900000000     0.652570000000     0.487378   
Zn       Zn     0.135610000000     0.652570000000     0.386100000000     0.487378   
Zn       Zn     0.135610000000     0.347430000000     0.613900000000     0.487378   
Zn       Zn     0.364390000000     0.113900000000     0.847430000000     0.487378   
Zn       Zn     0.364390000000     0.886100000000     0.152570000000     0.487378   
Zn       Zn     0.364390000000     0.847430000000     0.886100000000     0.487378   
Zn       Zn     0.364390000000     0.152570000000     0.113900000000     0.487378   
Zn       Zn     0.864390000000     0.613900000000     0.652570000000     0.487378   
Zn       Zn     0.864390000000     0.386100000000     0.347430000000     0.487378   
Zn       Zn     0.864390000000     0.347430000000     0.613900000000     0.487378   
Zn       Zn     0.864390000000     0.652570000000     0.386100000000     0.487378   
Zn       Zn     0.635610000000     0.886100000000     0.152570000000     0.487378   
Zn       Zn     0.635610000000     0.113900000000     0.847430000000     0.487378   
Zn       Zn     0.635610000000     0.152570000000     0.113900000000     0.487378   
Zn       Zn     0.635610000000     0.847430000000     0.886100000000     0.487378   
H        H      0.172000000000     0.152000000000     0.240000000000     0.104307   
H        H      0.172000000000     0.848000000000     0.760000000000     0.104307   
H        H      0.172000000000     0.760000000000     0.152000000000     0.104307   
H        H      0.172000000000     0.240000000000     0.848000000000     0.104307   
H        H      0.328000000000     0.348000000000     0.740000000000     0.104307   
H        H      0.328000000000     0.652000000000     0.260000000000     0.104307   
H        H      0.328000000000     0.740000000000     0.652000000000     0.104307   
H        H      0.328000000000     0.260000000000     0.348000000000     0.104307   
H        H      0.828000000000     0.848000000000     0.760000000000     0.104307   
H        H      0.828000000000     0.152000000000     0.240000000000     0.104307   
H        H      0.828000000000     0.240000000000     0.848000000000     0.104307   
H        H      0.828000000000     0.760000000000     0.152000000000     0.104307   
H        H      0.672000000000     0.652000000000     0.260000000000     0.104307   
H        H      0.672000000000     0.348000000000     0.740000000000     0.104307   
H        H      0.672000000000     0.260000000000     0.348000000000     0.104307   
H        H      0.672000000000     0.740000000000     0.652000000000     0.104307   
H        H      0.000000000000     0.483000000000     0.401000000000     0.104307   
H        H      0.000000000000     0.950000000000     0.171000000000     0.104307   
H        H      0.000000000000     0.517000000000     0.599000000000     0.104307   
H        H      0.000000000000     0.050000000000     0.829000000000     0.104307   
H        H      0.000000000000     0.599000000000     0.483000000000     0.104307   
H        H      0.000000000000     0.829000000000     0.950000000000     0.104307   
H        H      0.000000000000     0.401000000000     0.517000000000     0.104307   
H        H      0.000000000000     0.171000000000     0.050000000000     0.104307   
H        H      0.500000000000     0.017000000000     0.901000000000     0.104307   
H        H      0.500000000000     0.550000000000     0.671000000000     0.104307   
H        H      0.500000000000     0.983000000000     0.099000000000     0.104307   
H        H      0.500000000000     0.450000000000     0.329000000000     0.104307   
H        H      0.500000000000     0.901000000000     0.983000000000     0.104307   
H        H      0.500000000000     0.671000000000     0.450000000000     0.104307   
H        H      0.500000000000     0.099000000000     0.017000000000     0.104307   
H        H      0.500000000000     0.329000000000     0.550000000000     0.104307   
C        C      0.102800000000     0.125000000000     0.232800000000     0.0973247  
C        C      0.103500000000     0.045300000000     0.202800000000     0.0973247  
C        C      0.214300000000     0.002600000000     0.184700000000     0.0973247  
C        C      0.102800000000     0.875000000000     0.767200000000     0.0973247  
C        C      0.103500000000     0.954700000000     0.797200000000     0.0973247  
C        C      0.214300000000     0.997400000000     0.815300000000     0.0973247  
C        C      0.102800000000     0.767200000000     0.125000000000     0.0973247  
C        C      0.103500000000     0.797200000000     0.045300000000     0.0973247  
C        C      0.214300000000     0.815300000000     0.002600000000     0.0973247  
C        C      0.102800000000     0.232800000000     0.875000000000     0.0973247  
C        C      0.103500000000     0.202800000000     0.954700000000     0.0973247  
C        C      0.214300000000     0.184700000000     0.997400000000     0.0973247  
C        C      0.397200000000     0.375000000000     0.732800000000     0.0973247  
C        C      0.396500000000     0.454700000000     0.702800000000     0.0973247  
C        C      0.285700000000     0.497400000000     0.684700000000     0.0973247  
C        C      0.397200000000     0.625000000000     0.267200000000     0.0973247  
C        C      0.396500000000     0.545300000000     0.297200000000     0.0973247  
C        C      0.285700000000     0.502600000000     0.315300000000     0.0973247  
C        C      0.397200000000     0.732800000000     0.625000000000     0.0973247  
C        C      0.396500000000     0.702800000000     0.545300000000     0.0973247  
C        C      0.285700000000     0.684700000000     0.502600000000     0.0973247  
C        C      0.397200000000     0.267200000000     0.375000000000     0.0973247  
C        C      0.396500000000     0.297200000000     0.454700000000     0.0973247  
C        C      0.285700000000     0.315300000000     0.497400000000     0.0973247  
C        C      0.897200000000     0.875000000000     0.767200000000     0.0973247  
C        C      0.896500000000     0.954700000000     0.797200000000     0.0973247  
C        C      0.785700000000     0.997400000000     0.815300000000     0.0973247  
C        C      0.897200000000     0.125000000000     0.232800000000     0.0973247  
C        C      0.896500000000     0.045300000000     0.202800000000     0.0973247  
C        C      0.785700000000     0.002600000000     0.184700000000     0.0973247  
C        C      0.897200000000     0.232800000000     0.875000000000     0.0973247  
C        C      0.896500000000     0.202800000000     0.954700000000     0.0973247  
C        C      0.785700000000     0.184700000000     0.997400000000     0.0973247  
C        C      0.897200000000     0.767200000000     0.125000000000     0.0973247  
C        C      0.896500000000     0.797200000000     0.045300000000     0.0973247  
C        C      0.785700000000     0.815300000000     0.002600000000     0.0973247  
C        C      0.602800000000     0.625000000000     0.267200000000     0.0973247  
C        C      0.603500000000     0.545300000000     0.297200000000     0.0973247  
C        C      0.714300000000     0.502600000000     0.315300000000     0.0973247  
C        C      0.602800000000     0.375000000000     0.732800000000     0.0973247  
C        C      0.603500000000     0.454700000000     0.702800000000     0.0973247  
C        C      0.714300000000     0.497400000000     0.684700000000     0.0973247  
C        C      0.602800000000     0.267200000000     0.375000000000     0.0973247  
C        C      0.603500000000     0.297200000000     0.454700000000     0.0973247  
C        C      0.714300000000     0.315300000000     0.497400000000     0.0973247  
C        C      0.602800000000     0.732800000000     0.625000000000     0.0973247  
C        C      0.603500000000     0.702800000000     0.545300000000     0.0973247  
C        C      0.714300000000     0.684700000000     0.502600000000     0.0973247  
C        C      0.000000000000     0.164200000000     0.249600000000     0.0973247  
C        C      0.000000000000     0.004800000000     0.189800000000     0.0973247  
C        C      0.000000000000     0.248400000000     0.285300000000     0.0973247  
C        C      0.000000000000     0.835800000000     0.750400000000     0.0973247  
C        C      0.000000000000     0.995200000000     0.810200000000     0.0973247  
C        C      0.000000000000     0.751600000000     0.714700000000     0.0973247  
C        C      0.000000000000     0.750400000000     0.164200000000     0.0973247  
C        C      0.000000000000     0.810200000000     0.004800000000     0.0973247  
C        C      0.000000000000     0.714700000000     0.248400000000     0.0973247  
C        C      0.000000000000     0.249600000000     0.835800000000     0.0973247  
C        C      0.000000000000     0.189800000000     0.995200000000     0.0973247  
C        C      0.000000000000     0.285300000000     0.751600000000     0.0973247  
C        C      0.500000000000     0.335800000000     0.749600000000     0.0973247  
C        C      0.500000000000     0.495200000000     0.689800000000     0.0973247  
C        C      0.500000000000     0.251600000000     0.785300000000     0.0973247  
C        C      0.500000000000     0.664200000000     0.250400000000     0.0973247  
C        C      0.500000000000     0.504800000000     0.310200000000     0.0973247  
C        C      0.500000000000     0.748400000000     0.214700000000     0.0973247  
C        C      0.500000000000     0.749600000000     0.664200000000     0.0973247  
C        C      0.500000000000     0.689800000000     0.504800000000     0.0973247  
C        C      0.500000000000     0.785300000000     0.748400000000     0.0973247  
C        C      0.500000000000     0.250400000000     0.335800000000     0.0973247  
C        C      0.500000000000     0.310200000000     0.495200000000     0.0973247  
C        C      0.500000000000     0.214700000000     0.251600000000     0.0973247  
O        O      0.095700000000     0.279900000000     0.300100000000    -0.323987   
O        O      0.301100000000     0.042200000000     0.165900000000    -0.323987   
O        O      0.215400000000     0.925700000000     0.189900000000    -0.323987   
O        O      0.095700000000     0.720100000000     0.699900000000    -0.323987   
O        O      0.301100000000     0.957800000000     0.834100000000    -0.323987   
O        O      0.215400000000     0.074300000000     0.810100000000    -0.323987   
O        O      0.095700000000     0.699900000000     0.279900000000    -0.323987   
O        O      0.301100000000     0.834100000000     0.042200000000    -0.323987   
O        O      0.215400000000     0.810100000000     0.925700000000    -0.323987   
O        O      0.095700000000     0.300100000000     0.720100000000    -0.323987   
O        O      0.301100000000     0.165900000000     0.957800000000    -0.323987   
O        O      0.215400000000     0.189900000000     0.074300000000    -0.323987   
O        O      0.404300000000     0.220100000000     0.800100000000    -0.323987   
O        O      0.198900000000     0.457800000000     0.665900000000    -0.323987   
O        O      0.284600000000     0.574300000000     0.689900000000    -0.323987   
O        O      0.404300000000     0.779900000000     0.199900000000    -0.323987   
O        O      0.198900000000     0.542200000000     0.334100000000    -0.323987   
O        O      0.284600000000     0.425700000000     0.310100000000    -0.323987   
O        O      0.404300000000     0.800100000000     0.779900000000    -0.323987   
O        O      0.198900000000     0.665900000000     0.542200000000    -0.323987   
O        O      0.284600000000     0.689900000000     0.425700000000    -0.323987   
O        O      0.404300000000     0.199900000000     0.220100000000    -0.323987   
O        O      0.198900000000     0.334100000000     0.457800000000    -0.323987   
O        O      0.284600000000     0.310100000000     0.574300000000    -0.323987   
O        O      0.904300000000     0.720100000000     0.699900000000    -0.323987   
O        O      0.698900000000     0.957800000000     0.834100000000    -0.323987   
O        O      0.784600000000     0.074300000000     0.810100000000    -0.323987   
O        O      0.904300000000     0.279900000000     0.300100000000    -0.323987   
O        O      0.698900000000     0.042200000000     0.165900000000    -0.323987   
O        O      0.784600000000     0.925700000000     0.189900000000    -0.323987   
O        O      0.904300000000     0.300100000000     0.720100000000    -0.323987   
O        O      0.698900000000     0.165900000000     0.957800000000    -0.323987   
O        O      0.784600000000     0.189900000000     0.074300000000    -0.323987   
O        O      0.904300000000     0.699900000000     0.279900000000    -0.323987   
O        O      0.698900000000     0.834100000000     0.042200000000    -0.323987   
O        O      0.784600000000     0.810100000000     0.925700000000    -0.323987   
O        O      0.595700000000     0.779900000000     0.199900000000    -0.323987   
O        O      0.801100000000     0.542200000000     0.334100000000    -0.323987   
O        O      0.715400000000     0.425700000000     0.310100000000    -0.323987   
O        O      0.595700000000     0.220100000000     0.800100000000    -0.323987   
O        O      0.801100000000     0.457800000000     0.665900000000    -0.323987   
O        O      0.715400000000     0.574300000000     0.689900000000    -0.323987   
O        O      0.595700000000     0.199900000000     0.220100000000    -0.323987   
O        O      0.801100000000     0.334100000000     0.457800000000    -0.323987   
O        O      0.715400000000     0.310100000000     0.574300000000    -0.323987   
O        O      0.595700000000     0.800100000000     0.779900000000    -0.323987   
O        O      0.801100000000     0.665900000000     0.542200000000    -0.323987   
O        O      0.715400000000     0.689900000000     0.425700000000    -0.323987   
O        O      0.000000000000     0.431000000000     0.395500000000    -0.323987   
O        O      0.000000000000     0.569000000000     0.604500000000    -0.323987   
O        O      0.000000000000     0.604500000000     0.431000000000    -0.323987   
O        O      0.000000000000     0.395500000000     0.569000000000    -0.323987   
O        O      0.500000000000     0.069000000000     0.895500000000    -0.323987   
O        O      0.500000000000     0.931000000000     0.104500000000    -0.323987   
O        O      0.500000000000     0.895500000000     0.931000000000    -0.323987   
O        O      0.500000000000     0.104500000000     0.069000000000    -0.323987   


