data_EXEWAG_original

_audit_creation_method RASPA-1.0
_audit_creation_date 2022-1-29
_audit_author_name 'Felipe Lopes de Oliveira <felipe.lopes.oliveira@ibm.com>'

_cell_length_a    13.899
_cell_length_b    14.8676
_cell_length_c    14.8676
_cell_angle_alpha 117.792
_cell_angle_beta  98.1929
_cell_angle_gamma 98.1929
_cell_volume      2612.45

_symmetry_cell_setting          triclinic
_symmetry_space_group_name_Hall 'P 1'
_symmetry_space_group_name_H-M  'P 1'
_symmetry_Int_Tables_number     1

_symmetry_equiv_pos_as_xyz 'x,y,z'

loop_
_atom_site_label
_atom_site_type_symbol
_atom_site_fract_x
_atom_site_fract_y
_atom_site_fract_z
_atom_site_charge
Zn       Zn     0.139070000000     0.622050000000     0.325990000000     0.467422   
Zn       Zn     0.360930000000     0.674010000000     0.377950000000     0.467422   
Zn       Zn     0.860930000000     0.377950000000     0.674010000000     0.467422   
Zn       Zn     0.639070000000     0.325990000000     0.622050000000     0.467422   
H        H      0.383700000000     0.658600000000     0.071600000000     0.0610165  
H        H      0.995100000000     0.598100000000     0.446100000000     0.0610165  
H        H      0.964900000000     0.660700000000     0.219100000000     0.0610165  
H        H      0.837400000000     0.610100000000     0.461900000000     0.0610165  
H        H      0.399900000000     0.676600000000     0.893800000000     0.0610165  
H        H      0.049300000000     0.622900000000     0.804100000000     0.0610165  
H        H      0.803800000000     0.671900000000     0.225100000000     0.0610165  
H        H      0.399600000000     0.712000000000     0.724200000000     0.0610165  
H        H      0.116300000000     0.928400000000     0.341400000000     0.0610165  
H        H      0.504900000000     0.553900000000     0.401900000000     0.0610165  
H        H      0.535100000000     0.780900000000     0.339300000000     0.0610165  
H        H      0.662600000000     0.538100000000     0.389900000000     0.0610165  
H        H      0.100100000000     0.106200000000     0.323400000000     0.0610165  
H        H      0.450700000000     0.195900000000     0.377100000000     0.0610165  
H        H      0.696200000000     0.774900000000     0.328100000000     0.0610165  
H        H      0.100400000000     0.275800000000     0.288000000000     0.0610165  
H        H      0.616300000000     0.341400000000     0.928400000000     0.0610165  
H        H      0.004900000000     0.401900000000     0.553900000000     0.0610165  
H        H      0.035100000000     0.339300000000     0.780900000000     0.0610165  
H        H      0.162600000000     0.389900000000     0.538100000000     0.0610165  
H        H      0.600100000000     0.323400000000     0.106200000000     0.0610165  
H        H      0.950700000000     0.377100000000     0.195900000000     0.0610165  
H        H      0.196200000000     0.328100000000     0.774900000000     0.0610165  
H        H      0.600400000000     0.288000000000     0.275800000000     0.0610165  
H        H      0.883700000000     0.071600000000     0.658600000000     0.0610165  
H        H      0.495100000000     0.446100000000     0.598100000000     0.0610165  
H        H      0.464900000000     0.219100000000     0.660700000000     0.0610165  
H        H      0.337400000000     0.461900000000     0.610100000000     0.0610165  
H        H      0.899900000000     0.893800000000     0.676600000000     0.0610165  
H        H      0.549300000000     0.804100000000     0.622900000000     0.0610165  
H        H      0.303800000000     0.225100000000     0.671900000000     0.0610165  
H        H      0.899600000000     0.724200000000     0.712000000000     0.0610165  
C        C      0.225700000000     0.618400000000     0.066600000000     0.0179798  
C        C      0.317100000000     0.645500000000     0.038700000000     0.0179798  
C        C      0.955900000000     0.613600000000     0.401400000000     0.0179798  
C        C      0.801800000000     0.644410000000     0.346590000000     0.0179798  
C        C      0.938100000000     0.649900000000     0.268100000000     0.0179798  
C        C      0.269500000000     0.645800000000     0.936400000000     0.0179798  
C        C      0.179100000000     0.651800000000     0.763600000000     0.0179798  
C        C      0.260000000000     0.678610000000     0.635790000000     0.0179798  
C        C      0.228700000000     0.612340000000     0.163860000000     0.0179798  
C        C      0.167300000000     0.628500000000     0.908100000000     0.0179798  
C        C      0.861700000000     0.620800000000     0.411800000000     0.0179798  
C        C      0.330700000000     0.666000000000     0.876000000000     0.0179798  
C        C      0.333000000000     0.686200000000     0.713800000000     0.0179798  
C        C      0.118300000000     0.632500000000     0.821500000000     0.0179798  
C        C      0.841800000000     0.657800000000     0.271600000000     0.0179798  
C        C      0.282100000000     0.669300000000     0.787700000000     0.0179798  
C        C      0.271800000000     0.684230000000     0.540570000000     0.0179798  
C        C      0.274300000000     0.933400000000     0.381600000000     0.0179798  
C        C      0.182900000000     0.961300000000     0.354500000000     0.0179798  
C        C      0.544100000000     0.598600000000     0.386400000000     0.0179798  
C        C      0.698200000000     0.653410000000     0.355590000000     0.0179798  
C        C      0.561900000000     0.731900000000     0.350100000000     0.0179798  
C        C      0.230500000000     0.063600000000     0.354200000000     0.0179798  
C        C      0.320900000000     0.236400000000     0.348200000000     0.0179798  
C        C      0.240000000000     0.364210000000     0.321390000000     0.0179798  
C        C      0.271300000000     0.836140000000     0.387660000000     0.0179798  
C        C      0.332700000000     0.091900000000     0.371500000000     0.0179798  
C        C      0.638300000000     0.588200000000     0.379200000000     0.0179798  
C        C      0.169300000000     0.124000000000     0.334000000000     0.0179798  
C        C      0.167000000000     0.286200000000     0.313800000000     0.0179798  
C        C      0.381700000000     0.178500000000     0.367500000000     0.0179798  
C        C      0.658200000000     0.728400000000     0.342200000000     0.0179798  
C        C      0.217900000000     0.212300000000     0.330700000000     0.0179798  
C        C      0.228200000000     0.459430000000     0.315770000000     0.0179798  
C        C      0.774300000000     0.381600000000     0.933400000000     0.0179798  
C        C      0.682900000000     0.354500000000     0.961300000000     0.0179798  
C        C      0.044100000000     0.386400000000     0.598600000000     0.0179798  
C        C      0.198200000000     0.355590000000     0.653410000000     0.0179798  
C        C      0.061900000000     0.350100000000     0.731900000000     0.0179798  
C        C      0.730500000000     0.354200000000     0.063600000000     0.0179798  
C        C      0.820900000000     0.348200000000     0.236400000000     0.0179798  
C        C      0.740000000000     0.321390000000     0.364210000000     0.0179798  
C        C      0.771300000000     0.387660000000     0.836140000000     0.0179798  
C        C      0.832700000000     0.371500000000     0.091900000000     0.0179798  
C        C      0.138300000000     0.379200000000     0.588200000000     0.0179798  
C        C      0.669300000000     0.334000000000     0.124000000000     0.0179798  
C        C      0.667000000000     0.313800000000     0.286200000000     0.0179798  
C        C      0.881700000000     0.367500000000     0.178500000000     0.0179798  
C        C      0.158200000000     0.342200000000     0.728400000000     0.0179798  
C        C      0.717900000000     0.330700000000     0.212300000000     0.0179798  
C        C      0.728200000000     0.315770000000     0.459430000000     0.0179798  
C        C      0.725700000000     0.066600000000     0.618400000000     0.0179798  
C        C      0.817100000000     0.038700000000     0.645500000000     0.0179798  
C        C      0.455900000000     0.401400000000     0.613600000000     0.0179798  
C        C      0.301800000000     0.346590000000     0.644410000000     0.0179798  
C        C      0.438100000000     0.268100000000     0.649900000000     0.0179798  
C        C      0.769500000000     0.936400000000     0.645800000000     0.0179798  
C        C      0.679100000000     0.763600000000     0.651800000000     0.0179798  
C        C      0.760000000000     0.635790000000     0.678610000000     0.0179798  
C        C      0.728700000000     0.163860000000     0.612340000000     0.0179798  
C        C      0.667300000000     0.908100000000     0.628500000000     0.0179798  
C        C      0.361700000000     0.411800000000     0.620800000000     0.0179798  
C        C      0.830700000000     0.876000000000     0.666000000000     0.0179798  
C        C      0.833000000000     0.713800000000     0.686200000000     0.0179798  
C        C      0.618300000000     0.821500000000     0.632500000000     0.0179798  
C        C      0.341800000000     0.271600000000     0.657800000000     0.0179798  
C        C      0.782100000000     0.787700000000     0.669300000000     0.0179798  
C        C      0.771800000000     0.540570000000     0.684230000000     0.0179798  
S        S      0.135150000000     0.655750000000     0.649150000000     0.0336562  
S        S      0.107340000000     0.601440000000     0.991360000000     0.0336562  
S        S      0.364850000000     0.350850000000     0.344250000000     0.0336562  
S        S      0.392660000000     0.008640000000     0.398560000000     0.0336562  
S        S      0.864850000000     0.344250000000     0.350850000000     0.0336562  
S        S      0.892660000000     0.398560000000     0.008640000000     0.0336562  
S        S      0.635150000000     0.649150000000     0.655750000000     0.0336562  
S        S      0.607340000000     0.991360000000     0.601440000000     0.0336562  
N        N      0.996100000000     0.627310000000     0.330890000000    -0.163697   
N        N      0.503900000000     0.669110000000     0.372690000000    -0.163697   
N        N      0.003900000000     0.372690000000     0.669110000000    -0.163697   
N        N      0.496100000000     0.330890000000     0.627310000000    -0.163697   
O        O      0.357900000000     0.699810000000     0.526190000000    -0.291206   
O        O      0.145900000000     0.588280000000     0.180720000000    -0.291206   
O        O      0.191400000000     0.669610000000     0.480390000000    -0.291206   
O        O      0.313400000000     0.636890000000     0.222710000000    -0.291206   
O        O      0.142100000000     0.473810000000     0.300190000000    -0.291206   
O        O      0.354100000000     0.819280000000     0.411720000000    -0.291206   
O        O      0.308600000000     0.519610000000     0.330390000000    -0.291206   
O        O      0.186600000000     0.777290000000     0.363110000000    -0.291206   
O        O      0.642100000000     0.300190000000     0.473810000000    -0.291206   
O        O      0.854100000000     0.411720000000     0.819280000000    -0.291206   
O        O      0.808600000000     0.330390000000     0.519610000000    -0.291206   
O        O      0.686600000000     0.363110000000     0.777290000000    -0.291206   
O        O      0.857900000000     0.526190000000     0.699810000000    -0.291206   
O        O      0.645900000000     0.180720000000     0.588280000000    -0.291206   
O        O      0.691400000000     0.480390000000     0.669610000000    -0.291206   
O        O      0.813400000000     0.222710000000     0.636890000000    -0.291206   


