data_EZUCIM_original

_audit_creation_method RASPA-1.0
_audit_creation_date 2022-1-29
_audit_author_name 'Felipe Lopes de Oliveira <felipe.lopes.oliveira@ibm.com>'

_cell_length_a    8.741
_cell_length_b    14.796
_cell_length_c    19.34
_cell_angle_alpha 90
_cell_angle_beta  90
_cell_angle_gamma 90
_cell_volume      2501.28

_symmetry_cell_setting          triclinic
_symmetry_space_group_name_Hall 'P 1'
_symmetry_space_group_name_H-M  'P 1'
_symmetry_Int_Tables_number     1

_symmetry_equiv_pos_as_xyz 'x,y,z'

loop_
_atom_site_label
_atom_site_type_symbol
_atom_site_fract_x
_atom_site_fract_y
_atom_site_fract_z
_atom_site_charge
Zn       Zn     0.368540000000     0.044480000000     0.926700000000     0.433637   
Zn       Zn     0.131460000000     0.955520000000     0.426700000000     0.433637   
Zn       Zn     0.631460000000     0.544480000000     0.573300000000     0.433637   
Zn       Zn     0.868540000000     0.455520000000     0.073300000000     0.433637   
H        H      0.696300000000     0.865900000000     0.500400000000     0.0853469  
H        H      0.155700000000     0.028800000000     0.691300000000     0.0853469  
H        H      0.737300000000     0.712100000000     0.499500000000     0.0853469  
H        H      0.832700000000     0.116600000000     0.580200000000     0.0853469  
H        H      0.778100000000     0.021600000000     0.606000000000     0.0853469  
H        H      0.158800000000     0.049300000000     0.808300000000     0.0853469  
H        H      0.374300000000     0.826900000000     0.644200000000     0.0853469  
H        H      0.418500000000     0.677900000000     0.638700000000     0.0853469  
H        H      0.589900000000     0.986000000000     0.819800000000     0.0853469  
H        H      0.605700000000     0.965400000000     0.702300000000     0.0853469  
H        H      0.295000000000     0.999000000000     0.595000000000     0.0853469  
H        H      0.689000000000     0.074000000000     0.467000000000     0.0853469  
H        H      0.803700000000     0.134100000000     0.000400000000     0.0853469  
H        H      0.344300000000     0.971200000000     0.191300000000     0.0853469  
H        H      0.762700000000     0.287900000000     0.999500000000     0.0853469  
H        H      0.667300000000     0.883400000000     0.080200000000     0.0853469  
H        H      0.721900000000     0.978400000000     0.106000000000     0.0853469  
H        H      0.341200000000     0.950700000000     0.308300000000     0.0853469  
H        H      0.125700000000     0.173100000000     0.144200000000     0.0853469  
H        H      0.081500000000     0.322100000000     0.138700000000     0.0853469  
H        H      0.910100000000     0.014000000000     0.319800000000     0.0853469  
H        H      0.894300000000     0.034600000000     0.202300000000     0.0853469  
H        H      0.205000000000     0.001000000000     0.095000000000     0.0853469  
H        H      0.811000000000     0.926000000000     0.967000000000     0.0853469  
H        H      0.303700000000     0.365900000000     0.999600000000     0.0853469  
H        H      0.844300000000     0.528800000000     0.808700000000     0.0853469  
H        H      0.262700000000     0.212100000000     0.000500000000     0.0853469  
H        H      0.167300000000     0.616600000000     0.919800000000     0.0853469  
H        H      0.221900000000     0.521600000000     0.894000000000     0.0853469  
H        H      0.841200000000     0.549300000000     0.691700000000     0.0853469  
H        H      0.625700000000     0.326900000000     0.855800000000     0.0853469  
H        H      0.581500000000     0.177900000000     0.861300000000     0.0853469  
H        H      0.410100000000     0.486000000000     0.680200000000     0.0853469  
H        H      0.394300000000     0.465400000000     0.797700000000     0.0853469  
H        H      0.705000000000     0.499000000000     0.905000000000     0.0853469  
H        H      0.311000000000     0.574000000000     0.033000000000     0.0853469  
H        H      0.196300000000     0.634100000000     0.499600000000     0.0853469  
H        H      0.655700000000     0.471200000000     0.308700000000     0.0853469  
H        H      0.237300000000     0.787900000000     0.500500000000     0.0853469  
H        H      0.332700000000     0.383400000000     0.419800000000     0.0853469  
H        H      0.278100000000     0.478400000000     0.394000000000     0.0853469  
H        H      0.658800000000     0.450700000000     0.191700000000     0.0853469  
H        H      0.874300000000     0.673100000000     0.355800000000     0.0853469  
H        H      0.918500000000     0.822100000000     0.361300000000     0.0853469  
H        H      0.089900000000     0.514000000000     0.180200000000     0.0853469  
H        H      0.105700000000     0.534600000000     0.297700000000     0.0853469  
H        H      0.795000000000     0.501000000000     0.405000000000     0.0853469  
H        H      0.189000000000     0.426000000000     0.533000000000     0.0853469  
C        C      0.682400000000     0.058400000000     0.516700000000     0.0264204  
C        C      0.382500000000     0.997900000000     0.682500000000     0.0264204  
C        C      0.551600000000     0.015200000000     0.521000000000     0.0264204  
C        C      0.531700000000     0.865300000000     0.573300000000     0.0264204  
C        C      0.639500000000     0.828700000000     0.529400000000     0.0264204  
C        C      0.245800000000     0.020900000000     0.716100000000     0.0264204  
C        C      0.662800000000     0.735200000000     0.529000000000     0.0264204  
C        C      0.809300000000     0.055500000000     0.565500000000     0.0264204  
C        C      0.951900000000     0.013300000000     0.536000000000     0.0264204  
C        C      0.248600000000     0.031400000000     0.786500000000     0.0264204  
C        C      0.448900000000     0.805100000000     0.614300000000     0.0264204  
C        C      0.476500000000     0.715700000000     0.610600000000     0.0264204  
C        C      0.502600000000     0.994500000000     0.793100000000     0.0264204  
C        C      0.513900000000     0.982800000000     0.722700000000     0.0264204  
C        C      0.432900000000     0.018200000000     0.464700000000     0.0264204  
C        C      0.817600000000     0.941600000000     0.016700000000     0.0264204  
C        C      0.117500000000     0.002100000000     0.182500000000     0.0264204  
C        C      0.948400000000     0.984800000000     0.021000000000     0.0264204  
C        C      0.968300000000     0.134700000000     0.073300000000     0.0264204  
C        C      0.860500000000     0.171300000000     0.029400000000     0.0264204  
C        C      0.254200000000     0.979100000000     0.216100000000     0.0264204  
C        C      0.837200000000     0.264800000000     0.029000000000     0.0264204  
C        C      0.690700000000     0.944500000000     0.065500000000     0.0264204  
C        C      0.548100000000     0.986700000000     0.036000000000     0.0264204  
C        C      0.251400000000     0.968600000000     0.286500000000     0.0264204  
C        C      0.051100000000     0.194900000000     0.114300000000     0.0264204  
C        C      0.023500000000     0.284300000000     0.110600000000     0.0264204  
C        C      0.997400000000     0.005500000000     0.293100000000     0.0264204  
C        C      0.986100000000     0.017200000000     0.222700000000     0.0264204  
C        C      0.067100000000     0.981800000000     0.964700000000     0.0264204  
C        C      0.317600000000     0.558400000000     0.983300000000     0.0264204  
C        C      0.617500000000     0.497900000000     0.817500000000     0.0264204  
C        C      0.448400000000     0.515200000000     0.979000000000     0.0264204  
C        C      0.468300000000     0.365300000000     0.926700000000     0.0264204  
C        C      0.360500000000     0.328700000000     0.970600000000     0.0264204  
C        C      0.754200000000     0.520900000000     0.783900000000     0.0264204  
C        C      0.337200000000     0.235200000000     0.971000000000     0.0264204  
C        C      0.190700000000     0.555500000000     0.934500000000     0.0264204  
C        C      0.048100000000     0.513300000000     0.964000000000     0.0264204  
C        C      0.751400000000     0.531400000000     0.713500000000     0.0264204  
C        C      0.551100000000     0.305100000000     0.885700000000     0.0264204  
C        C      0.523500000000     0.215700000000     0.889400000000     0.0264204  
C        C      0.497400000000     0.494500000000     0.706900000000     0.0264204  
C        C      0.486100000000     0.482800000000     0.777300000000     0.0264204  
C        C      0.567100000000     0.518200000000     0.035300000000     0.0264204  
C        C      0.182400000000     0.441600000000     0.483300000000     0.0264204  
C        C      0.882500000000     0.502100000000     0.317500000000     0.0264204  
C        C      0.051600000000     0.484800000000     0.479000000000     0.0264204  
C        C      0.031700000000     0.634700000000     0.426700000000     0.0264204  
C        C      0.139500000000     0.671300000000     0.470600000000     0.0264204  
C        C      0.745800000000     0.479100000000     0.283900000000     0.0264204  
C        C      0.162800000000     0.764800000000     0.471000000000     0.0264204  
C        C      0.309300000000     0.444500000000     0.434500000000     0.0264204  
C        C      0.451900000000     0.486700000000     0.464000000000     0.0264204  
C        C      0.748600000000     0.468600000000     0.213500000000     0.0264204  
C        C      0.948900000000     0.694900000000     0.385700000000     0.0264204  
C        C      0.976500000000     0.784300000000     0.389400000000     0.0264204  
C        C      0.002600000000     0.505500000000     0.206900000000     0.0264204  
C        C      0.013900000000     0.517200000000     0.277300000000     0.0264204  
C        C      0.932900000000     0.481800000000     0.535300000000     0.0264204  
N        N      0.379400000000     0.988500000000     0.612600000000    -0.171543   
N        N      0.511600000000     0.957200000000     0.578300000000    -0.171543   
N        N      0.584100000000     0.676400000000     0.568600000000    -0.171543   
N        N      0.371700000000     0.017600000000     0.825500000000    -0.171543   
N        N      0.120600000000     0.011500000000     0.112600000000    -0.171543   
N        N      0.988400000000     0.042800000000     0.078300000000    -0.171543   
N        N      0.915900000000     0.323600000000     0.068600000000    -0.171543   
N        N      0.128300000000     0.982400000000     0.325500000000    -0.171543   
N        N      0.620600000000     0.488500000000     0.887400000000    -0.171543   
N        N      0.488400000000     0.457200000000     0.921700000000    -0.171543   
N        N      0.415900000000     0.176400000000     0.931400000000    -0.171543   
N        N      0.628300000000     0.517600000000     0.674500000000    -0.171543   
N        N      0.879400000000     0.511500000000     0.387400000000    -0.171543   
N        N      0.011600000000     0.542800000000     0.421700000000    -0.171543   
N        N      0.084100000000     0.823600000000     0.431400000000    -0.171543   
N        N      0.871700000000     0.482400000000     0.174500000000    -0.171543   
O        O      0.967700000000     0.023500000000     0.470300000000    -0.291983   
O        O      0.045100000000     0.973400000000     0.572800000000    -0.291983   
O        O      0.444400000000     0.071300000000     0.415000000000    -0.291983   
O        O      0.325700000000     0.960400000000     0.472500000000    -0.291983   
O        O      0.532300000000     0.976500000000     0.970300000000    -0.291983   
O        O      0.454900000000     0.026600000000     0.072800000000    -0.291983   
O        O      0.055600000000     0.928700000000     0.915000000000    -0.291983   
O        O      0.174300000000     0.039600000000     0.972500000000    -0.291983   
O        O      0.032300000000     0.523500000000     0.029700000000    -0.291983   
O        O      0.954900000000     0.473400000000     0.927200000000    -0.291983   
O        O      0.555600000000     0.571300000000     0.085000000000    -0.291983   
O        O      0.674300000000     0.460400000000     0.027500000000    -0.291983   
O        O      0.467700000000     0.476500000000     0.529700000000    -0.291983   
O        O      0.545100000000     0.526600000000     0.427200000000    -0.291983   
O        O      0.944400000000     0.428700000000     0.585000000000    -0.291983   
O        O      0.825700000000     0.539600000000     0.527500000000    -0.291983   


