data_FASQUN_original

_audit_creation_method RASPA-1.0
_audit_creation_date 2022-1-29
_audit_author_name 'Felipe Lopes de Oliveira <felipe.lopes.oliveira@ibm.com>'

_cell_length_a    7.542
_cell_length_b    17.899
_cell_length_c    23.6594
_cell_angle_alpha 92.6607
_cell_angle_beta  90
_cell_angle_gamma 90
_cell_volume      3190.44

_symmetry_cell_setting          triclinic
_symmetry_space_group_name_Hall 'P 1'
_symmetry_space_group_name_H-M  'P 1'
_symmetry_Int_Tables_number     1

_symmetry_equiv_pos_as_xyz 'x,y,z'

loop_
_atom_site_label
_atom_site_type_symbol
_atom_site_fract_x
_atom_site_fract_y
_atom_site_fract_z
_atom_site_charge
Zn       Zn     0.473320000000     0.420810000000     0.969590000000     0.479372   
Zn       Zn     0.790090000000     0.490320000000     0.912680000000     0.479372   
Zn       Zn     0.473320000000     0.079190000000     0.530410000000     0.479372   
Zn       Zn     0.790090000000     0.009680000000     0.587320000000     0.479372   
Zn       Zn     0.526680000000     0.579190000000     0.030410000000     0.479372   
Zn       Zn     0.209910000000     0.509680000000     0.087320000000     0.479372   
Zn       Zn     0.526680000000     0.920810000000     0.469590000000     0.479372   
Zn       Zn     0.209910000000     0.990320000000     0.412680000000     0.479372   
H        H      0.049800000000     0.609100000000     0.785400000000     0.131097   
H        H      0.230500000000     0.677500000000     0.729500000000     0.131097   
H        H      0.562400000000     0.712200000000     0.860200000000     0.131097   
H        H      0.557500000000     0.996800000000     0.741400000000     0.131097   
H        H      0.426300000000     0.994100000000     0.828600000000     0.131097   
H        H      0.994900000000     0.091200000000     0.767500000000     0.131097   
H        H      0.124100000000     0.091900000000     0.679800000000     0.131097   
H        H      0.228400000000     0.176000000000     0.858100000000     0.131097   
H        H      0.121500000000     0.292800000000     0.882000000000     0.131097   
H        H      0.662800000000     0.201500000000     0.927900000000     0.131097   
H        H      0.774200000000     0.084800000000     0.906200000000     0.131097   
H        H      0.376100000000     0.645500000000     0.915600000000     0.131097   
H        H      0.049800000000     0.890900000000     0.714600000000     0.131097   
H        H      0.230500000000     0.822500000000     0.770500000000     0.131097   
H        H      0.562400000000     0.787800000000     0.639800000000     0.131097   
H        H      0.557500000000     0.503200000000     0.758600000000     0.131097   
H        H      0.426300000000     0.505900000000     0.671400000000     0.131097   
H        H      0.994900000000     0.408800000000     0.732500000000     0.131097   
H        H      0.124100000000     0.408100000000     0.820200000000     0.131097   
H        H      0.228400000000     0.324000000000     0.641900000000     0.131097   
H        H      0.121500000000     0.207200000000     0.618000000000     0.131097   
H        H      0.662800000000     0.298500000000     0.572100000000     0.131097   
H        H      0.774200000000     0.415200000000     0.593800000000     0.131097   
H        H      0.376100000000     0.854500000000     0.584400000000     0.131097   
H        H      0.950200000000     0.390900000000     0.214600000000     0.131097   
H        H      0.769500000000     0.322500000000     0.270500000000     0.131097   
H        H      0.437600000000     0.287800000000     0.139800000000     0.131097   
H        H      0.442500000000     0.003200000000     0.258600000000     0.131097   
H        H      0.573700000000     0.005900000000     0.171400000000     0.131097   
H        H      0.005100000000     0.908800000000     0.232500000000     0.131097   
H        H      0.875900000000     0.908100000000     0.320200000000     0.131097   
H        H      0.771600000000     0.824000000000     0.141900000000     0.131097   
H        H      0.878500000000     0.707200000000     0.118000000000     0.131097   
H        H      0.337200000000     0.798500000000     0.072100000000     0.131097   
H        H      0.225800000000     0.915200000000     0.093800000000     0.131097   
H        H      0.623900000000     0.354500000000     0.084400000000     0.131097   
H        H      0.950200000000     0.109100000000     0.285400000000     0.131097   
H        H      0.769500000000     0.177500000000     0.229500000000     0.131097   
H        H      0.437600000000     0.212200000000     0.360200000000     0.131097   
H        H      0.442500000000     0.496800000000     0.241400000000     0.131097   
H        H      0.573700000000     0.494100000000     0.328600000000     0.131097   
H        H      0.005100000000     0.591200000000     0.267500000000     0.131097   
H        H      0.875900000000     0.591900000000     0.179800000000     0.131097   
H        H      0.771600000000     0.676000000000     0.358100000000     0.131097   
H        H      0.878500000000     0.792800000000     0.382000000000     0.131097   
H        H      0.337200000000     0.701500000000     0.427900000000     0.131097   
H        H      0.225800000000     0.584800000000     0.406200000000     0.131097   
H        H      0.623900000000     0.145500000000     0.415600000000     0.131097   
C        C      0.802200000000     0.335200000000     0.920200000000     0.134236   
C        C      0.067100000000     0.580200000000     0.893500000000     0.134236   
C        C      0.190300000000     0.622000000000     0.857000000000     0.134236   
C        C      0.151600000000     0.631000000000     0.800900000000     0.134236   
C        C      0.260200000000     0.671700000000     0.767200000000     0.134236   
C        C      0.413400000000     0.704200000000     0.789000000000     0.134236   
C        C      0.457500000000     0.692700000000     0.845100000000     0.134236   
C        C      0.649900000000     0.806700000000     0.783000000000     0.134236   
C        C      0.441200000000     0.045000000000     0.644800000000     0.134236   
C        C      0.354500000000     0.045000000000     0.700900000000     0.134236   
C        C      0.443600000000     0.015800000000     0.746500000000     0.134236   
C        C      0.365500000000     0.014400000000     0.798800000000     0.134236   
C        C      0.197100000000     0.043200000000     0.807500000000     0.134236   
C        C      0.108600000000     0.071900000000     0.762300000000     0.134236   
C        C      0.186300000000     0.072600000000     0.709800000000     0.134236   
C        C      0.099200000000     0.041200000000     0.865000000000     0.134236   
C        C      0.960800000000     0.977600000000     0.859000000000     0.134236   
C        C      0.223400000000     0.023700000000     0.914200000000     0.134236   
C        C      0.014600000000     0.117500000000     0.879700000000     0.134236   
C        C      0.114200000000     0.181000000000     0.872600000000     0.134236   
C        C      0.050300000000     0.251000000000     0.886300000000     0.134236   
C        C      0.877600000000     0.259400000000     0.906700000000     0.134236   
C        C      0.777600000000     0.196600000000     0.913900000000     0.134236   
C        C      0.844200000000     0.126600000000     0.900800000000     0.134236   
C        C      0.345800000000     0.652400000000     0.878100000000     0.134236   
C        C      0.802200000000     0.164800000000     0.579800000000     0.134236   
C        C      0.067100000000     0.919800000000     0.606500000000     0.134236   
C        C      0.190300000000     0.878000000000     0.643000000000     0.134236   
C        C      0.151600000000     0.869000000000     0.699100000000     0.134236   
C        C      0.260200000000     0.828300000000     0.732800000000     0.134236   
C        C      0.413400000000     0.795800000000     0.711000000000     0.134236   
C        C      0.457500000000     0.807300000000     0.654900000000     0.134236   
C        C      0.649900000000     0.693300000000     0.717000000000     0.134236   
C        C      0.441200000000     0.455000000000     0.855200000000     0.134236   
C        C      0.354500000000     0.455000000000     0.799100000000     0.134236   
C        C      0.443600000000     0.484200000000     0.753500000000     0.134236   
C        C      0.365500000000     0.485600000000     0.701200000000     0.134236   
C        C      0.197100000000     0.456800000000     0.692500000000     0.134236   
C        C      0.108600000000     0.428100000000     0.737700000000     0.134236   
C        C      0.186300000000     0.427400000000     0.790200000000     0.134236   
C        C      0.099200000000     0.458800000000     0.635000000000     0.134236   
C        C      0.960800000000     0.522400000000     0.641000000000     0.134236   
C        C      0.223400000000     0.476300000000     0.585800000000     0.134236   
C        C      0.014600000000     0.382500000000     0.620300000000     0.134236   
C        C      0.114200000000     0.319000000000     0.627400000000     0.134236   
C        C      0.050300000000     0.249000000000     0.613700000000     0.134236   
C        C      0.877600000000     0.240600000000     0.593300000000     0.134236   
C        C      0.777600000000     0.303400000000     0.586100000000     0.134236   
C        C      0.844200000000     0.373400000000     0.599200000000     0.134236   
C        C      0.345800000000     0.847600000000     0.621900000000     0.134236   
C        C      0.197800000000     0.664800000000     0.079800000000     0.134236   
C        C      0.932900000000     0.419800000000     0.106500000000     0.134236   
C        C      0.809700000000     0.378000000000     0.143000000000     0.134236   
C        C      0.848400000000     0.369000000000     0.199100000000     0.134236   
C        C      0.739800000000     0.328300000000     0.232800000000     0.134236   
C        C      0.586600000000     0.295800000000     0.211000000000     0.134236   
C        C      0.542500000000     0.307300000000     0.154900000000     0.134236   
C        C      0.350100000000     0.193300000000     0.217000000000     0.134236   
C        C      0.558800000000     0.955000000000     0.355200000000     0.134236   
C        C      0.645500000000     0.955000000000     0.299100000000     0.134236   
C        C      0.556400000000     0.984200000000     0.253500000000     0.134236   
C        C      0.634500000000     0.985600000000     0.201200000000     0.134236   
C        C      0.802900000000     0.956800000000     0.192500000000     0.134236   
C        C      0.891400000000     0.928100000000     0.237700000000     0.134236   
C        C      0.813700000000     0.927400000000     0.290200000000     0.134236   
C        C      0.900800000000     0.958800000000     0.135000000000     0.134236   
C        C      0.039200000000     0.022400000000     0.141000000000     0.134236   
C        C      0.776600000000     0.976300000000     0.085800000000     0.134236   
C        C      0.985400000000     0.882500000000     0.120300000000     0.134236   
C        C      0.885800000000     0.819000000000     0.127400000000     0.134236   
C        C      0.949700000000     0.749000000000     0.113700000000     0.134236   
C        C      0.122400000000     0.740600000000     0.093300000000     0.134236   
C        C      0.222400000000     0.803400000000     0.086100000000     0.134236   
C        C      0.155800000000     0.873400000000     0.099200000000     0.134236   
C        C      0.654200000000     0.347600000000     0.121900000000     0.134236   
C        C      0.197800000000     0.835200000000     0.420200000000     0.134236   
C        C      0.932900000000     0.080200000000     0.393500000000     0.134236   
C        C      0.809700000000     0.122000000000     0.357000000000     0.134236   
C        C      0.848400000000     0.131000000000     0.300900000000     0.134236   
C        C      0.739800000000     0.171700000000     0.267200000000     0.134236   
C        C      0.586600000000     0.204200000000     0.289000000000     0.134236   
C        C      0.542500000000     0.192700000000     0.345100000000     0.134236   
C        C      0.350100000000     0.306700000000     0.283000000000     0.134236   
C        C      0.558800000000     0.545000000000     0.144800000000     0.134236   
C        C      0.645500000000     0.545000000000     0.200900000000     0.134236   
C        C      0.556400000000     0.515800000000     0.246500000000     0.134236   
C        C      0.634500000000     0.514400000000     0.298800000000     0.134236   
C        C      0.802900000000     0.543200000000     0.307500000000     0.134236   
C        C      0.891400000000     0.571900000000     0.262300000000     0.134236   
C        C      0.813700000000     0.572600000000     0.209800000000     0.134236   
C        C      0.900800000000     0.541200000000     0.365000000000     0.134236   
C        C      0.039200000000     0.477600000000     0.359000000000     0.134236   
C        C      0.776600000000     0.523700000000     0.414200000000     0.134236   
C        C      0.985400000000     0.617500000000     0.379700000000     0.134236   
C        C      0.885800000000     0.681000000000     0.372600000000     0.134236   
C        C      0.949700000000     0.751000000000     0.386300000000     0.134236   
C        C      0.122400000000     0.759400000000     0.406700000000     0.134236   
C        C      0.222400000000     0.696600000000     0.413900000000     0.134236   
C        C      0.155800000000     0.626600000000     0.400800000000     0.134236   
C        C      0.654200000000     0.152400000000     0.378100000000     0.134236   
C        C      0.529000000000     0.750000000000     0.750000000000     0.134236   
C        C      0.471000000000     0.250000000000     0.250000000000     0.134236   
O        O      0.654900000000     0.338820000000     0.943420000000    -0.281832   
O        O      0.894900000000     0.390460000000     0.907160000000    -0.281832   
O        O      0.923600000000     0.558980000000     0.870780000000    -0.281832   
O        O      0.105000000000     0.570180000000     0.943280000000    -0.281832   
O        O      0.590500000000     0.015910000000     0.641010000000    -0.281832   
O        O      0.359700000000     0.072520000000     0.604720000000    -0.281832   
O        O      0.673000000000     0.496350000000     0.987050000000    -0.281832   
O        O      0.654900000000     0.161180000000     0.556580000000    -0.281832   
O        O      0.894900000000     0.109540000000     0.592840000000    -0.281832   
O        O      0.923600000000     0.941020000000     0.629220000000    -0.281832   
O        O      0.105000000000     0.929820000000     0.556720000000    -0.281832   
O        O      0.590500000000     0.484090000000     0.858990000000    -0.281832   
O        O      0.359700000000     0.427480000000     0.895280000000    -0.281832   
O        O      0.673000000000     0.003650000000     0.512950000000    -0.281832   
O        O      0.345100000000     0.661180000000     0.056580000000    -0.281832   
O        O      0.105100000000     0.609540000000     0.092840000000    -0.281832   
O        O      0.076400000000     0.441020000000     0.129220000000    -0.281832   
O        O      0.895000000000     0.429820000000     0.056720000000    -0.281832   
O        O      0.409500000000     0.984090000000     0.358990000000    -0.281832   
O        O      0.640300000000     0.927480000000     0.395280000000    -0.281832   
O        O      0.327000000000     0.503650000000     0.012950000000    -0.281832   
O        O      0.345100000000     0.838820000000     0.443420000000    -0.281832   
O        O      0.105100000000     0.890460000000     0.407160000000    -0.281832   
O        O      0.076400000000     0.058980000000     0.370780000000    -0.281832   
O        O      0.895000000000     0.070180000000     0.443280000000    -0.281832   
O        O      0.409500000000     0.515910000000     0.141010000000    -0.281832   
O        O      0.640300000000     0.572520000000     0.104720000000    -0.281832   
O        O      0.327000000000     0.996350000000     0.487050000000    -0.281832   
F        F      0.557700000000     0.846850000000     0.821150000000    -0.442455   
F        F      0.781900000000     0.774630000000     0.810530000000    -0.442455   
F        F      0.723700000000     0.854400000000     0.749300000000    -0.442455   
F        F      0.830100000000     0.994670000000     0.824170000000    -0.442455   
F        F      0.034500000000     0.914780000000     0.837880000000    -0.442455   
F        F      0.887000000000     0.961190000000     0.907890000000    -0.442455   
F        F      0.364400000000     0.068290000000     0.916690000000    -0.442455   
F        F      0.284500000000     0.953530000000     0.911730000000    -0.442455   
F        F      0.142900000000     0.033140000000     0.963840000000    -0.442455   
F        F      0.557700000000     0.653150000000     0.678850000000    -0.442455   
F        F      0.781900000000     0.725370000000     0.689470000000    -0.442455   
F        F      0.723700000000     0.645600000000     0.750700000000    -0.442455   
F        F      0.830100000000     0.505330000000     0.675830000000    -0.442455   
F        F      0.034500000000     0.585220000000     0.662120000000    -0.442455   
F        F      0.887000000000     0.538810000000     0.592110000000    -0.442455   
F        F      0.364400000000     0.431710000000     0.583310000000    -0.442455   
F        F      0.284500000000     0.546470000000     0.588270000000    -0.442455   
F        F      0.142900000000     0.466860000000     0.536160000000    -0.442455   
F        F      0.442300000000     0.153150000000     0.178850000000    -0.442455   
F        F      0.218100000000     0.225370000000     0.189470000000    -0.442455   
F        F      0.276300000000     0.145600000000     0.250700000000    -0.442455   
F        F      0.169900000000     0.005330000000     0.175830000000    -0.442455   
F        F      0.965500000000     0.085220000000     0.162120000000    -0.442455   
F        F      0.113000000000     0.038810000000     0.092110000000    -0.442455   
F        F      0.635600000000     0.931710000000     0.083310000000    -0.442455   
F        F      0.715500000000     0.046470000000     0.088270000000    -0.442455   
F        F      0.857100000000     0.966860000000     0.036160000000    -0.442455   
F        F      0.442300000000     0.346850000000     0.321150000000    -0.442455   
F        F      0.218100000000     0.274630000000     0.310530000000    -0.442455   
F        F      0.276300000000     0.354400000000     0.249300000000    -0.442455   
F        F      0.169900000000     0.494670000000     0.324170000000    -0.442455   
F        F      0.965500000000     0.414780000000     0.337880000000    -0.442455   
F        F      0.113000000000     0.461190000000     0.407890000000    -0.442455   
F        F      0.635600000000     0.568290000000     0.416690000000    -0.442455   
F        F      0.715500000000     0.453530000000     0.411730000000    -0.442455   
F        F      0.857100000000     0.533140000000     0.463840000000    -0.442455   


