data_FECWOB01_original

_audit_creation_method RASPA-1.0
_audit_creation_date 2022-1-30
_audit_author_name 'Felipe Lopes de Oliveira <felipe.lopes.oliveira@ibm.com>'

_cell_length_a    6.791
_cell_length_b    9.604
_cell_length_c    17.722
_cell_angle_alpha 101.826
_cell_angle_beta  96.5
_cell_angle_gamma 106.425
_cell_volume      1066.96

_symmetry_cell_setting          triclinic
_symmetry_space_group_name_Hall 'P 1'
_symmetry_space_group_name_H-M  'P 1'
_symmetry_Int_Tables_number     1

_symmetry_equiv_pos_as_xyz 'x,y,z'

loop_
_atom_site_label
_atom_site_type_symbol
_atom_site_fract_x
_atom_site_fract_y
_atom_site_fract_z
_atom_site_charge
Zn       Zn     0.076510000000     0.537160000000     0.249260000000     0.430747   
Zn       Zn     0.158570000000     0.190340000000     0.250680000000     0.430747   
Zn       Zn     0.923490000000     0.462840000000     0.750740000000     0.430747   
Zn       Zn     0.841430000000     0.809660000000     0.749320000000     0.430747   
H        H      0.808700000000     0.061700000000     0.018500000000     0.0622797  
H        H      0.218200000000     0.458000000000     0.017900000000     0.0622797  
H        H      0.147700000000     0.393500000000     0.881700000000     0.0622797  
H        H      0.735500000000     0.000800000000     0.882600000000     0.0622797  
H        H      0.353600000000     0.701600000000     0.478800000000     0.0622797  
H        H      0.129800000000     0.274500000000     0.487600000000     0.0622797  
H        H      0.430000000000     0.778700000000     0.615900000000     0.0622797  
H        H      0.187000000000     0.349100000000     0.622300000000     0.0622797  
H        H      0.191300000000     0.938300000000     0.981500000000     0.0622797  
H        H      0.781800000000     0.542000000000     0.982100000000     0.0622797  
H        H      0.852300000000     0.606500000000     0.118300000000     0.0622797  
H        H      0.264500000000     0.999200000000     0.117400000000     0.0622797  
H        H      0.646400000000     0.298400000000     0.521200000000     0.0622797  
H        H      0.870200000000     0.725500000000     0.512400000000     0.0622797  
H        H      0.570000000000     0.221300000000     0.384100000000     0.0622797  
H        H      0.813000000000     0.650900000000     0.377700000000     0.0622797  
C        C      0.939000000000     0.190700000000     0.870500000000     0.0355333  
C        C      0.060900000000     0.307800000000     0.119300000000     0.0355333  
C        C      0.022000000000     0.267900000000     0.033200000000     0.0355333  
C        C      0.876000000000     0.128600000000     0.991400000000     0.0355333  
C        C      0.122000000000     0.365900000000     0.991000000000     0.0355333  
C        C      0.080700000000     0.327600000000     0.909500000000     0.0355333  
C        C      0.834000000000     0.091400000000     0.910100000000     0.0355333  
C        C      0.892000000000     0.150200000000     0.783000000000     0.0355333  
C        C      0.190800000000     0.432600000000     0.382800000000     0.0355333  
C        C      0.363400000000     0.617800000000     0.718000000000     0.0355333  
C        C      0.323300000000     0.631100000000     0.508300000000     0.0355333  
C        C      0.187100000000     0.375600000000     0.513300000000     0.0355333  
C        C      0.368300000000     0.677900000000     0.590400000000     0.0355333  
C        C      0.235000000000     0.482100000000     0.471200000000     0.0355333  
C        C      0.224700000000     0.420200000000     0.593600000000     0.0355333  
C        C      0.318600000000     0.570400000000     0.632600000000     0.0355333  
C        C      0.061000000000     0.809300000000     0.129500000000     0.0355333  
C        C      0.939100000000     0.692200000000     0.880700000000     0.0355333  
C        C      0.978000000000     0.732100000000     0.966800000000     0.0355333  
C        C      0.124000000000     0.871400000000     0.008600000000     0.0355333  
C        C      0.878000000000     0.634100000000     0.009000000000     0.0355333  
C        C      0.919300000000     0.672400000000     0.090500000000     0.0355333  
C        C      0.166000000000     0.908600000000     0.089900000000     0.0355333  
C        C      0.108000000000     0.849800000000     0.217000000000     0.0355333  
C        C      0.809200000000     0.567400000000     0.617200000000     0.0355333  
C        C      0.636600000000     0.382200000000     0.282000000000     0.0355333  
C        C      0.676700000000     0.368900000000     0.491700000000     0.0355333  
C        C      0.812900000000     0.624400000000     0.486700000000     0.0355333  
C        C      0.631700000000     0.322100000000     0.409600000000     0.0355333  
C        C      0.765000000000     0.517900000000     0.528800000000     0.0355333  
C        C      0.775300000000     0.579800000000     0.406400000000     0.0355333  
C        C      0.681400000000     0.429600000000     0.367400000000     0.0355333  
N        N      0.884000000000     0.245000000000     0.738500000000    -0.0870113  
N        N      0.229200000000     0.571700000000     0.763400000000    -0.0870113  
N        N      0.517500000000     0.722400000000     0.839400000000    -0.0870113  
N        N      0.329600000000     0.639900000000     0.840200000000    -0.0870113  
N        N      0.835000000000     0.164400000000     0.665400000000    -0.0870113  
N        N      0.815000000000     0.028300000000     0.666600000000    -0.0870113  
N        N      0.546200000000     0.711500000000     0.763200000000    -0.0870113  
N        N      0.847000000000     0.012700000000     0.738300000000    -0.0870113  
N        N      0.116000000000     0.755000000000     0.261500000000    -0.0870113  
N        N      0.770800000000     0.428300000000     0.236600000000    -0.0870113  
N        N      0.482500000000     0.277600000000     0.160600000000    -0.0870113  
N        N      0.670400000000     0.360100000000     0.159800000000    -0.0870113  
N        N      0.165000000000     0.835600000000     0.334600000000    -0.0870113  
N        N      0.185000000000     0.971700000000     0.333400000000    -0.0870113  
N        N      0.453800000000     0.288500000000     0.236800000000    -0.0870113  
N        N      0.153000000000     0.987300000000     0.261700000000    -0.0870113  
O        O      0.009000000000     0.202600000000     0.152700000000    -0.308043   
O        O      0.147800000000     0.444600000000     0.153500000000    -0.308043   
O        O      0.228500000000     0.534900000000     0.348300000000    -0.308043   
O        O      0.121900000000     0.293900000000     0.351200000000    -0.308043   
O        O      0.991000000000     0.797400000000     0.847300000000    -0.308043   
O        O      0.852200000000     0.555400000000     0.846500000000    -0.308043   
O        O      0.771500000000     0.465100000000     0.651700000000    -0.308043   
O        O      0.878100000000     0.706100000000     0.648800000000    -0.308043   


