data_FEFCUQ_original

_audit_creation_method RASPA-1.0
_audit_creation_date 2022-1-29
_audit_author_name 'Felipe Lopes de Oliveira <felipe.lopes.oliveira@ibm.com>'

_cell_length_a    14.071
_cell_length_b    15.265
_cell_length_c    15.351
_cell_angle_alpha 88.337
_cell_angle_beta  85.779
_cell_angle_gamma 85.205
_cell_volume      3275.98

_symmetry_cell_setting          triclinic
_symmetry_space_group_name_Hall 'P 1'
_symmetry_space_group_name_H-M  'P 1'
_symmetry_Int_Tables_number     1

_symmetry_equiv_pos_as_xyz 'x,y,z'

loop_
_atom_site_label
_atom_site_type_symbol
_atom_site_fract_x
_atom_site_fract_y
_atom_site_fract_z
_atom_site_charge
Zn       Zn     0.894970000000     0.835290000000     0.600480000000     0.461192   
Zn       Zn     0.686210000000     0.851010000000     0.614090000000     0.461192   
Zn       Zn     0.105030000000     0.164710000000     0.399520000000     0.461192   
Zn       Zn     0.313790000000     0.148990000000     0.385910000000     0.461192   
H        H      0.914900000000     0.769500000000     0.881800000000     0.052184   
H        H      0.912900000000     0.756600000000     0.030700000000     0.052184   
H        H      0.655100000000     0.878100000000     0.050500000000     0.052184   
H        H      0.648100000000     0.824300000000     0.188400000000     0.052184   
H        H      0.649100000000     0.878700000000     0.902800000000     0.052184   
H        H      0.651200000000     0.834600000000     0.336300000000     0.052184   
H        H      0.935700000000     0.834500000000     0.308300000000     0.052184   
H        H      0.932900000000     0.823500000000     0.160000000000     0.052184   
H        H      0.926700000000     0.112600000000     0.614900000000     0.052184   
H        H      0.639600000000     0.141700000000     0.616700000000     0.052184   
H        H      0.645400000000     0.291400000000     0.615600000000     0.052184   
H        H      0.931400000000     0.261600000000     0.614100000000     0.052184   
H        H      0.920500000000     0.397400000000     0.545800000000     0.052184   
H        H      0.928000000000     0.544900000000     0.545100000000     0.052184   
H        H      0.042500000000     0.968600000000     0.604700000000     0.052184   
H        H      0.068700000000     0.712500000000     0.614200000000     0.052184   
H        H      0.230100000000     0.711900000000     0.620100000000     0.052184   
H        H      0.201000000000     0.975600000000     0.601400000000     0.052184   
H        H      0.375300000000     0.724300000000     0.668400000000     0.052184   
H        H      0.353800000000     0.968000000000     0.559000000000     0.052184   
H        H      0.535600000000     0.719300000000     0.649100000000     0.052184   
H        H      0.513500000000     0.973100000000     0.564800000000     0.052184   
H        H      0.670200000000     0.571900000000     0.674000000000     0.052184   
H        H      0.664200000000     0.422100000000     0.676300000000     0.052184   
H        H      0.085100000000     0.230500000000     0.118200000000     0.052184   
H        H      0.087100000000     0.243400000000     0.969300000000     0.052184   
H        H      0.344900000000     0.121900000000     0.949500000000     0.052184   
H        H      0.351900000000     0.175700000000     0.811600000000     0.052184   
H        H      0.350900000000     0.121300000000     0.097200000000     0.052184   
H        H      0.348800000000     0.165400000000     0.663700000000     0.052184   
H        H      0.064300000000     0.165500000000     0.691700000000     0.052184   
H        H      0.067100000000     0.176500000000     0.840000000000     0.052184   
H        H      0.073300000000     0.887400000000     0.385100000000     0.052184   
H        H      0.360400000000     0.858300000000     0.383300000000     0.052184   
H        H      0.354600000000     0.708600000000     0.384400000000     0.052184   
H        H      0.068600000000     0.738400000000     0.385900000000     0.052184   
H        H      0.079500000000     0.602600000000     0.454200000000     0.052184   
H        H      0.072000000000     0.455100000000     0.454900000000     0.052184   
H        H      0.957500000000     0.031400000000     0.395300000000     0.052184   
H        H      0.931300000000     0.287500000000     0.385800000000     0.052184   
H        H      0.769900000000     0.288100000000     0.379900000000     0.052184   
H        H      0.799000000000     0.024400000000     0.398600000000     0.052184   
H        H      0.624700000000     0.275700000000     0.331600000000     0.052184   
H        H      0.646200000000     0.032000000000     0.441000000000     0.052184   
H        H      0.464400000000     0.280700000000     0.350900000000     0.052184   
H        H      0.486500000000     0.026900000000     0.435200000000     0.052184   
H        H      0.329800000000     0.428100000000     0.326000000000     0.052184   
H        H      0.335800000000     0.577900000000     0.323700000000     0.052184   
C        C      0.783700000000     0.832500000000     0.776600000000     0.0119887  
C        C      0.782500000000     0.825500000000     0.873300000000     0.0119887  
C        C      0.860300000000     0.790600000000     0.915200000000     0.0119887  
C        C      0.860500000000     0.785500000000     0.005600000000     0.0119887  
C        C      0.708500000000     0.855000000000     0.016800000000     0.0119887  
C        C      0.797400000000     0.845200000000     0.438300000000     0.0119887  
C        C      0.794400000000     0.837700000000     0.339200000000     0.0119887  
C        C      0.706700000000     0.826700000000     0.212100000000     0.0119887  
C        C      0.704900000000     0.856500000000     0.927300000000     0.0119887  
C        C      0.708100000000     0.833200000000     0.301300000000     0.0119887  
C        C      0.877200000000     0.833100000000     0.284200000000     0.0119887  
C        C      0.875700000000     0.826300000000     0.194600000000     0.0119887  
C        C      0.789800000000     0.823600000000     0.155200000000     0.0119887  
C        C      0.786500000000     0.821200000000     0.058700000000     0.0119887  
C        C      0.779800000000     0.012900000000     0.612000000000     0.0119887  
C        C      0.783900000000     0.110600000000     0.615100000000     0.0119887  
C        C      0.869900000000     0.148400000000     0.614800000000     0.0119887  
C        C      0.698300000000     0.165800000000     0.615800000000     0.0119887  
C        C      0.702200000000     0.255500000000     0.615400000000     0.0119887  
C        C      0.872400000000     0.238200000000     0.614500000000     0.0119887  
C        C      0.790200000000     0.295500000000     0.614600000000     0.0119887  
C        C      0.794000000000     0.391700000000     0.612300000000     0.0119887  
C        C      0.869800000000     0.432100000000     0.572600000000     0.0119887  
C        C      0.873800000000     0.520900000000     0.570900000000     0.0119887  
C        C      0.800100000000     0.575400000000     0.606100000000     0.0119887  
C        C      0.081500000000     0.916300000000     0.605400000000     0.0119887  
C        C      0.096000000000     0.766000000000     0.612200000000     0.0119887  
C        C      0.193400000000     0.765100000000     0.615100000000     0.0119887  
C        C      0.238000000000     0.844600000000     0.610400000000     0.0119887  
C        C      0.176100000000     0.921000000000     0.605100000000     0.0119887  
C        C      0.342200000000     0.845900000000     0.611300000000     0.0119887  
C        C      0.403700000000     0.772500000000     0.642900000000     0.0119887  
C        C      0.389500000000     0.919400000000     0.581200000000     0.0119887  
C        C      0.498300000000     0.770900000000     0.637100000000     0.0119887  
C        C      0.485200000000     0.922200000000     0.583200000000     0.0119887  
C        C      0.802400000000     0.673200000000     0.603600000000     0.0119887  
C        C      0.720700000000     0.536500000000     0.647800000000     0.0119887  
C        C      0.717600000000     0.446800000000     0.649800000000     0.0119887  
C        C      0.216300000000     0.167500000000     0.223400000000     0.0119887  
C        C      0.217500000000     0.174500000000     0.126700000000     0.0119887  
C        C      0.139700000000     0.209400000000     0.084800000000     0.0119887  
C        C      0.139500000000     0.214500000000     0.994400000000     0.0119887  
C        C      0.291500000000     0.145000000000     0.983200000000     0.0119887  
C        C      0.202600000000     0.154800000000     0.561700000000     0.0119887  
C        C      0.205600000000     0.162300000000     0.660800000000     0.0119887  
C        C      0.293300000000     0.173300000000     0.787900000000     0.0119887  
C        C      0.295100000000     0.143500000000     0.072700000000     0.0119887  
C        C      0.291900000000     0.166800000000     0.698700000000     0.0119887  
C        C      0.122800000000     0.166900000000     0.715800000000     0.0119887  
C        C      0.124300000000     0.173700000000     0.805400000000     0.0119887  
C        C      0.210200000000     0.176400000000     0.844800000000     0.0119887  
C        C      0.213500000000     0.178800000000     0.941300000000     0.0119887  
C        C      0.220200000000     0.987100000000     0.388000000000     0.0119887  
C        C      0.216100000000     0.889400000000     0.384900000000     0.0119887  
C        C      0.130100000000     0.851600000000     0.385200000000     0.0119887  
C        C      0.301700000000     0.834200000000     0.384200000000     0.0119887  
C        C      0.297800000000     0.744500000000     0.384600000000     0.0119887  
C        C      0.127600000000     0.761800000000     0.385500000000     0.0119887  
C        C      0.209800000000     0.704500000000     0.385400000000     0.0119887  
C        C      0.206000000000     0.608300000000     0.387700000000     0.0119887  
C        C      0.130200000000     0.567900000000     0.427400000000     0.0119887  
C        C      0.126200000000     0.479100000000     0.429100000000     0.0119887  
C        C      0.199900000000     0.424600000000     0.393900000000     0.0119887  
C        C      0.918500000000     0.083700000000     0.394600000000     0.0119887  
C        C      0.904000000000     0.234000000000     0.387800000000     0.0119887  
C        C      0.806600000000     0.234900000000     0.384900000000     0.0119887  
C        C      0.762000000000     0.155400000000     0.389600000000     0.0119887  
C        C      0.823900000000     0.079000000000     0.394900000000     0.0119887  
C        C      0.657800000000     0.154100000000     0.388700000000     0.0119887  
C        C      0.596300000000     0.227500000000     0.357100000000     0.0119887  
C        C      0.610500000000     0.080600000000     0.418800000000     0.0119887  
C        C      0.501700000000     0.229100000000     0.362900000000     0.0119887  
C        C      0.514800000000     0.077800000000     0.416800000000     0.0119887  
C        C      0.197600000000     0.326800000000     0.396400000000     0.0119887  
C        C      0.279300000000     0.463500000000     0.352200000000     0.0119887  
C        C      0.282400000000     0.553200000000     0.350200000000     0.0119887  
N        N      0.039200000000     0.839200000000     0.606700000000    -0.152831   
N        N      0.541400000000     0.850000000000     0.612200000000    -0.152831   
N        N      0.960800000000     0.160800000000     0.393300000000    -0.152831   
N        N      0.458600000000     0.150000000000     0.387800000000    -0.152831   
O        O      0.698600000000     0.982800000000     0.607700000000    -0.290588   
O        O      0.858200000000     0.966700000000     0.613100000000    -0.290588   
O        O      0.861300000000     0.815700000000     0.732600000000    -0.290588   
O        O      0.703400000000     0.852500000000     0.744700000000    -0.290588   
O        O      0.723200000000     0.718100000000     0.617900000000    -0.290588   
O        O      0.882000000000     0.704600000000     0.587200000000    -0.290588   
O        O      0.717900000000     0.847400000000     0.481400000000    -0.290588   
O        O      0.877800000000     0.848700000000     0.467000000000    -0.290588   
O        O      0.301400000000     0.017200000000     0.392300000000    -0.290588   
O        O      0.141800000000     0.033300000000     0.386900000000    -0.290588   
O        O      0.138700000000     0.184300000000     0.267400000000    -0.290588   
O        O      0.296600000000     0.147500000000     0.255300000000    -0.290588   
O        O      0.276800000000     0.281900000000     0.382100000000    -0.290588   
O        O      0.118000000000     0.295400000000     0.412800000000    -0.290588   
O        O      0.282100000000     0.152600000000     0.518600000000    -0.290588   
O        O      0.122200000000     0.151300000000     0.533000000000    -0.290588   


