data_FEFDAX_original

_audit_creation_method RASPA-1.0
_audit_creation_date 2022-1-29
_audit_author_name 'Felipe Lopes de Oliveira <felipe.lopes.oliveira@ibm.com>'

_cell_length_a    14.02
_cell_length_b    15.082
_cell_length_c    15.121
_cell_angle_alpha 76.892
_cell_angle_beta  86.55
_cell_angle_gamma 83.446
_cell_volume      3091.73

_symmetry_cell_setting          triclinic
_symmetry_space_group_name_Hall 'P 1'
_symmetry_space_group_name_H-M  'P 1'
_symmetry_Int_Tables_number     1

_symmetry_equiv_pos_as_xyz 'x,y,z'

loop_
_atom_site_label
_atom_site_type_symbol
_atom_site_fract_x
_atom_site_fract_y
_atom_site_fract_z
_atom_site_charge
Zn       Zn     0.898060000000     0.109850000000     0.829180000000     0.471593   
Zn       Zn     0.687810000000     0.130160000000     0.835560000000     0.471593   
Zn       Zn     0.101940000000     0.890150000000     0.170820000000     0.471593   
Zn       Zn     0.312190000000     0.869840000000     0.164440000000     0.471593   
H        H      0.210400000000     0.117200000000     0.966400000000     0.0475841  
H        H      0.231200000000     0.124100000000     0.696800000000     0.0475841  
H        H      0.359100000000     0.063800000000     0.966700000000     0.0475841  
H        H      0.932300000000     0.102300000000     0.111700000000     0.0475841  
H        H      0.935500000000     0.110200000000     0.260300000000     0.0475841  
H        H      0.642700000000     0.125800000000     0.127200000000     0.0475841  
H        H      0.049200000000     0.105100000000     0.963000000000     0.0475841  
H        H      0.066700000000     0.122500000000     0.699300000000     0.0475841  
H        H      0.657700000000     0.168300000000     0.544600000000     0.0475841  
H        H      0.939300000000     0.080900000000     0.544900000000     0.0475841  
H        H      0.643900000000     0.430500000000     0.819000000000     0.0475841  
H        H      0.932800000000     0.071900000000     0.396500000000     0.0475841  
H        H      0.655400000000     0.578400000000     0.827400000000     0.0475841  
H        H      0.941800000000     0.811800000000     0.844000000000     0.0475841  
H        H      0.654300000000     0.702700000000     0.824100000000     0.0475841  
H        H      0.657000000000     0.849500000000     0.840600000000     0.0475841  
H        H      0.525400000000     0.066700000000     0.965500000000     0.0475841  
H        H      0.930200000000     0.400300000000     0.784800000000     0.0475841  
H        H      0.364400000000     0.187800000000     0.701500000000     0.0475841  
H        H      0.530200000000     0.191100000000     0.706400000000     0.0475841  
H        H      0.789600000000     0.882800000000     0.033600000000     0.0475841  
H        H      0.768800000000     0.875900000000     0.303200000000     0.0475841  
H        H      0.640900000000     0.936200000000     0.033300000000     0.0475841  
H        H      0.067700000000     0.897700000000     0.888300000000     0.0475841  
H        H      0.064500000000     0.889800000000     0.739700000000     0.0475841  
H        H      0.357300000000     0.874200000000     0.872800000000     0.0475841  
H        H      0.950800000000     0.894900000000     0.037000000000     0.0475841  
H        H      0.933300000000     0.877500000000     0.300700000000     0.0475841  
H        H      0.342300000000     0.831700000000     0.455400000000     0.0475841  
H        H      0.060700000000     0.919100000000     0.455100000000     0.0475841  
H        H      0.356100000000     0.569500000000     0.181000000000     0.0475841  
H        H      0.067200000000     0.928100000000     0.603500000000     0.0475841  
H        H      0.344600000000     0.421600000000     0.172600000000     0.0475841  
H        H      0.058200000000     0.188200000000     0.156000000000     0.0475841  
H        H      0.345700000000     0.297300000000     0.175900000000     0.0475841  
H        H      0.343000000000     0.150500000000     0.159400000000     0.0475841  
H        H      0.474600000000     0.933300000000     0.034500000000     0.0475841  
H        H      0.069800000000     0.599700000000     0.215200000000     0.0475841  
H        H      0.635600000000     0.812200000000     0.298500000000     0.0475841  
H        H      0.469800000000     0.808900000000     0.293600000000     0.0475841  
C        C      0.345200000000     0.123100000000     0.832300000000     0.038486   
C        C      0.240800000000     0.119700000000     0.832500000000     0.038486   
C        C      0.183000000000     0.116000000000     0.910800000000     0.038486   
C        C      0.786100000000     0.112300000000     0.004200000000     0.038486   
C        C      0.799700000000     0.126000000000     0.660800000000     0.038486   
C        C      0.195000000000     0.121500000000     0.752300000000     0.038486   
C        C      0.393100000000     0.088900000000     0.912100000000     0.038486   
C        C      0.780800000000     0.294800000000     0.810000000000     0.038486   
C        C      0.788000000000     0.113200000000     0.102800000000     0.038486   
C        C      0.873400000000     0.108200000000     0.145400000000     0.038486   
C        C      0.875700000000     0.111500000000     0.233400000000     0.038486   
C        C      0.800500000000     0.849000000000     0.841600000000     0.038486   
C        C      0.702700000000     0.120500000000     0.155100000000     0.038486   
C        C      0.793700000000     0.119800000000     0.381500000000     0.038486   
C        C      0.785600000000     0.393000000000     0.807800000000     0.038486   
C        C      0.086800000000     0.110800000000     0.908100000000     0.038486   
C        C      0.097200000000     0.119400000000     0.754500000000     0.038486   
C        C      0.791200000000     0.116800000000     0.284600000000     0.038486   
C        C      0.714900000000     0.148600000000     0.514500000000     0.038486   
C        C      0.799100000000     0.123600000000     0.562400000000     0.038486   
C        C      0.880000000000     0.097000000000     0.515100000000     0.038486   
C        C      0.801300000000     0.944000000000     0.850000000000     0.038486   
C        C      0.705500000000     0.451700000000     0.816200000000     0.038486   
C        C      0.876700000000     0.093300000000     0.427000000000     0.038486   
C        C      0.796800000000     0.669200000000     0.823200000000     0.038486   
C        C      0.712300000000     0.539500000000     0.820400000000     0.038486   
C        C      0.881600000000     0.790400000000     0.839300000000     0.038486   
C        C      0.714300000000     0.725100000000     0.827600000000     0.038486   
C        C      0.716100000000     0.812600000000     0.837100000000     0.038486   
C        C      0.796000000000     0.571800000000     0.814900000000     0.038486   
C        C      0.492200000000     0.091800000000     0.911100000000     0.038486   
C        C      0.871900000000     0.435800000000     0.795500000000     0.038486   
C        C      0.396300000000     0.162000000000     0.756600000000     0.038486   
C        C      0.495600000000     0.163900000000     0.759800000000     0.038486   
C        C      0.654800000000     0.876900000000     0.167700000000     0.038486   
C        C      0.759200000000     0.880300000000     0.167500000000     0.038486   
C        C      0.817000000000     0.884000000000     0.089200000000     0.038486   
C        C      0.213900000000     0.887700000000     0.995800000000     0.038486   
C        C      0.200300000000     0.874000000000     0.339200000000     0.038486   
C        C      0.805000000000     0.878500000000     0.247700000000     0.038486   
C        C      0.606900000000     0.911100000000     0.087900000000     0.038486   
C        C      0.219200000000     0.705200000000     0.190000000000     0.038486   
C        C      0.212000000000     0.886800000000     0.897200000000     0.038486   
C        C      0.126600000000     0.891800000000     0.854600000000     0.038486   
C        C      0.124300000000     0.888500000000     0.766600000000     0.038486   
C        C      0.199500000000     0.151000000000     0.158400000000     0.038486   
C        C      0.297300000000     0.879500000000     0.844900000000     0.038486   
C        C      0.206300000000     0.880200000000     0.618500000000     0.038486   
C        C      0.214400000000     0.607000000000     0.192200000000     0.038486   
C        C      0.913200000000     0.889200000000     0.091900000000     0.038486   
C        C      0.902800000000     0.880600000000     0.245500000000     0.038486   
C        C      0.208800000000     0.883200000000     0.715400000000     0.038486   
C        C      0.285100000000     0.851400000000     0.485500000000     0.038486   
C        C      0.200900000000     0.876400000000     0.437600000000     0.038486   
C        C      0.120000000000     0.903000000000     0.484900000000     0.038486   
C        C      0.198700000000     0.056000000000     0.150000000000     0.038486   
C        C      0.294500000000     0.548300000000     0.183800000000     0.038486   
C        C      0.123300000000     0.906700000000     0.573000000000     0.038486   
C        C      0.203200000000     0.330800000000     0.176800000000     0.038486   
C        C      0.287700000000     0.460500000000     0.179600000000     0.038486   
C        C      0.118400000000     0.209600000000     0.160700000000     0.038486   
C        C      0.285700000000     0.274900000000     0.172400000000     0.038486   
C        C      0.283900000000     0.187400000000     0.162900000000     0.038486   
C        C      0.204000000000     0.428200000000     0.185100000000     0.038486   
C        C      0.507800000000     0.908200000000     0.088900000000     0.038486   
C        C      0.128100000000     0.564200000000     0.204500000000     0.038486   
C        C      0.603700000000     0.838000000000     0.243400000000     0.038486   
C        C      0.504400000000     0.836100000000     0.240200000000     0.038486   
N        N      0.542600000000     0.128700000000     0.835800000000    -0.136017   
N        N      0.043200000000     0.113400000000     0.830800000000    -0.136017   
N        N      0.704000000000     0.120100000000     0.245200000000    -0.136017   
N        N      0.880600000000     0.701500000000     0.830500000000    -0.136017   
N        N      0.713000000000     0.145300000000     0.427600000000    -0.136017   
N        N      0.875500000000     0.521000000000     0.798000000000    -0.136017   
N        N      0.457400000000     0.871300000000     0.164200000000    -0.136017   
N        N      0.956800000000     0.886600000000     0.169200000000    -0.136017   
N        N      0.296000000000     0.879900000000     0.754800000000    -0.136017   
N        N      0.119400000000     0.298500000000     0.169500000000    -0.136017   
N        N      0.287000000000     0.854700000000     0.572400000000    -0.136017   
N        N      0.124500000000     0.479000000000     0.202000000000    -0.136017   
O        O      0.705900000000     0.113700000000     0.971200000000    -0.298411   
O        O      0.865700000000     0.108700000000     0.962000000000    -0.298411   
O        O      0.721000000000     0.139900000000     0.701200000000    -0.298411   
O        O      0.880100000000     0.111600000000     0.696800000000    -0.298411   
O        O      0.881500000000     0.973400000000     0.853700000000    -0.298411   
O        O      0.701500000000     0.264600000000     0.820700000000    -0.298411   
O        O      0.861100000000     0.247200000000     0.802500000000    -0.298411   
O        O      0.722500000000     0.992000000000     0.850300000000    -0.298411   
O        O      0.294100000000     0.886300000000     0.028800000000    -0.298411   
O        O      0.134300000000     0.891300000000     0.038000000000    -0.298411   
O        O      0.279000000000     0.860100000000     0.298800000000    -0.298411   
O        O      0.119900000000     0.888400000000     0.303200000000    -0.298411   
O        O      0.118500000000     0.026600000000     0.146300000000    -0.298411   
O        O      0.298500000000     0.735400000000     0.179300000000    -0.298411   
O        O      0.138900000000     0.752800000000     0.197500000000    -0.298411   
O        O      0.277500000000     0.008000000000     0.149700000000    -0.298411   


