data_FEFDEB_original

_audit_creation_method RASPA-1.0
_audit_creation_date 2022-1-29
_audit_author_name 'Felipe Lopes de Oliveira <felipe.lopes.oliveira@ibm.com>'

_cell_length_a    9.6282
_cell_length_b    15.21
_cell_length_c    15.21
_cell_angle_alpha 90
_cell_angle_beta  90.0009
_cell_angle_gamma 90.0009
_cell_volume      2227.43

_symmetry_cell_setting          triclinic
_symmetry_space_group_name_Hall 'P 1'
_symmetry_space_group_name_H-M  'P 1'
_symmetry_Int_Tables_number     1

_symmetry_equiv_pos_as_xyz 'x,y,z'

loop_
_atom_site_label
_atom_site_type_symbol
_atom_site_fract_x
_atom_site_fract_y
_atom_site_fract_z
_atom_site_charge
Zn       Zn     0.666200000000     0.006887000000     0.993707000000     0.554475   
Zn       Zn     0.334320000000     0.006853000000     0.993723000000     0.554475   
H        H      0.718640000000     0.280237000000     0.024937000000     0.039871   
H        H      0.718600000000     0.440547000000     0.027207000000     0.039871   
H        H      0.717860000000     0.733397000000     0.961067000000     0.039871   
H        H      0.717740000000     0.573107000000     0.958937000000     0.039871   
H        H      0.718600000000     0.975707000000     0.720407000000     0.039871   
H        H      0.718500000000     0.973327000000     0.560127000000     0.039871   
H        H      0.718460000000     0.038107000000     0.267147000000     0.039871   
H        H      0.718380000000     0.040477000000     0.427417000000     0.039871   
H        H      0.282040000000     0.280413000000     0.963393000000     0.039871   
H        H      0.282300000000     0.440653000000     0.961133000000     0.039871   
H        H      0.282940000000     0.733343000000     0.027143000000     0.039871   
H        H      0.283180000000     0.573083000000     0.029453000000     0.039871   
H        H      0.282280000000     0.975403000000     0.267273000000     0.039871   
H        H      0.282540000000     0.972983000000     0.427483000000     0.039871   
H        H      0.282180000000     0.037743000000     0.720323000000     0.039871   
H        H      0.282420000000     0.040193000000     0.560073000000     0.039871   
H        H      0.880520000000     0.964999000000     0.126839000000     0.039871   
H        H      0.880380000000     0.081609000000     0.111809000000     0.039871   
H        H      0.879560000000     0.912199000000     0.890199000000     0.039871   
H        H      0.881420000000     0.867159000000     0.998759000000     0.039871   
H        H      0.880520000000     0.143819000000     0.962739000000     0.039871   
H        H      0.880300000000     0.072519000000     0.869419000000     0.039871   
H        H      0.120480000000     0.070181000000     0.868171000000     0.039871   
H        H      0.119440000000     0.143131000000     0.960191000000     0.039871   
H        H      0.120600000000     0.083711000000     0.110441000000     0.039871   
H        H      0.119300000000     0.967371000000     0.127491000000     0.039871   
H        H      0.119360000000     0.867221000000     0.001361000000     0.039871   
H        H      0.120380000000     0.910251000000     0.891991000000     0.039871   
C        C      0.500240000000     0.166215000000     0.994115000000     0.0157159  
C        C      0.500300000000     0.265985000000     0.994195000000     0.0157159  
C        C      0.500440000000     0.456465000000     0.994195000000     0.0157159  
C        C      0.500320000000     0.847475000000     0.994045000000     0.0157159  
C        C      0.500400000000     0.747705000000     0.994135000000     0.0157159  
C        C      0.500460000000     0.557225000000     0.994195000000     0.0157159  
C        C      0.500340000000     0.006715000000     0.834405000000     0.0157159  
C        C      0.500380000000     0.006695000000     0.734655000000     0.0157159  
C        C      0.500460000000     0.006745000000     0.544175000000     0.0157159  
C        C      0.500280000000     0.006765000000     0.153135000000     0.0157159  
C        C      0.500360000000     0.006755000000     0.252895000000     0.0157159  
C        C      0.500460000000     0.006745000000     0.443385000000     0.0157159  
C        C      0.919680000000     0.018749000000     0.083869000000     0.0157159  
C        C      0.919640000000     0.922809000000     0.957979000000     0.0157159  
C        C      0.919580000000     0.079699000000     0.937819000000     0.0157159  
C        C      0.080820000000     0.078511000000     0.936341000000     0.0157159  
C        C      0.080740000000     0.020521000000     0.083591000000     0.0157159  
C        C      0.080740000000     0.922061000000     0.959671000000     0.0157159  
C        C      0.622420000000     0.314386000000     0.011046000000     0.0157159  
C        C      0.622360000000     0.407396000000     0.011616000000     0.0157159  
C        C      0.622040000000     0.699286000000     0.976056000000     0.0157159  
C        C      0.621940000000     0.606276000000     0.975526000000     0.0157159  
C        C      0.622420000000     0.989706000000     0.686256000000     0.0157159  
C        C      0.622320000000     0.989116000000     0.593246000000     0.0157159  
C        C      0.622340000000     0.023936000000     0.301286000000     0.0157159  
C        C      0.622260000000     0.024546000000     0.394306000000     0.0157159  
C        C      0.378280000000     0.314464000000     0.977334000000     0.0157159  
C        C      0.378480000000     0.407464000000     0.976764000000     0.0157159  
C        C      0.378800000000     0.699254000000     0.012234000000     0.0157159  
C        C      0.378960000000     0.606254000000     0.012844000000     0.0157159  
C        C      0.378440000000     0.989554000000     0.301354000000     0.0157159  
C        C      0.378640000000     0.988934000000     0.394344000000     0.0157159  
C        C      0.378380000000     0.023734000000     0.686214000000     0.0157159  
C        C      0.378580000000     0.024374000000     0.593214000000     0.0157159  
N        N      0.866360000000     0.007059000000     0.993299000000    -0.13306    
N        N      0.134060000000     0.007011000000     0.993271000000    -0.13306    
O        O      0.615080000000     0.007076000000     0.111086000000    -0.311695   
O        O      0.385440000000     0.006494000000     0.111124000000    -0.311695   
O        O      0.385480000000     0.889484000000     0.994304000000    -0.311695   
O        O      0.385300000000     0.124214000000     0.993764000000    -0.311695   
O        O      0.385340000000     0.006984000000     0.876394000000    -0.311695   
O        O      0.615140000000     0.889516000000     0.993656000000    -0.311695   
O        O      0.615120000000     0.124196000000     0.994316000000    -0.311695   
O        O      0.615320000000     0.006496000000     0.876396000000    -0.311695   


