data_FEHCOM_original

_audit_creation_method RASPA-1.0
_audit_creation_date 2022-1-31
_audit_author_name 'Felipe Lopes de Oliveira <felipe.lopes.oliveira@ibm.com>'

_cell_length_a    13.9249
_cell_length_b    18.1113
_cell_length_c    18.1113
_cell_angle_alpha 81.4681
_cell_angle_beta  67.3919
_cell_angle_gamma 67.3919
_cell_volume      3892.61

_symmetry_cell_setting          triclinic
_symmetry_space_group_name_Hall 'P 1'
_symmetry_space_group_name_H-M  'P 1'
_symmetry_Int_Tables_number     1

_symmetry_equiv_pos_as_xyz 'x,y,z'

loop_
_atom_site_label
_atom_site_type_symbol
_atom_site_fract_x
_atom_site_fract_y
_atom_site_fract_z
_atom_site_charge
Zn       Zn     0.844360000000     0.269200000000     0.283120000000     0.388812   
Zn       Zn     0.655640000000     0.216880000000     0.230800000000     0.388812   
Zn       Zn     0.103320000000     0.283120000000     0.269200000000     0.388812   
Zn       Zn     0.396680000000     0.230800000000     0.216880000000     0.388812   
Zn       Zn     0.155640000000     0.730800000000     0.716880000000     0.388812   
Zn       Zn     0.344360000000     0.783120000000     0.769200000000     0.388812   
Zn       Zn     0.896680000000     0.716880000000     0.730800000000     0.388812   
Zn       Zn     0.603320000000     0.769200000000     0.783120000000     0.388812   
H        H      0.796100000000     0.130900000000     0.484900000000     0.186367   
H        H      0.803100000000     0.028800000000     0.580400000000     0.186367   
H        H      0.003000000000     0.807600000000     0.611400000000     0.186367   
H        H      0.961500000000     0.898200000000     0.587800000000     0.186367   
H        H      0.989500000000     0.832000000000     0.528200000000     0.186367   
H        H      0.043400000000     0.046300000000     0.167900000000     0.186367   
H        H      0.141800000000     0.947700000000     0.072300000000     0.186367   
H        H      0.151300000000     0.890300000000     0.865900000000     0.186367   
H        H      0.120300000000     0.978300000000     0.890700000000     0.186367   
H        H      0.111800000000     0.911600000000     0.956200000000     0.186367   
H        H      0.703900000000     0.015100000000     0.369100000000     0.186367   
H        H      0.696900000000     0.919600000000     0.471200000000     0.186367   
H        H      0.497000000000     0.888600000000     0.692400000000     0.186367   
H        H      0.538500000000     0.912200000000     0.601800000000     0.186367   
H        H      0.510500000000     0.971800000000     0.668000000000     0.186367   
H        H      0.456600000000     0.332100000000     0.453700000000     0.186367   
H        H      0.358200000000     0.427700000000     0.552300000000     0.186367   
H        H      0.348700000000     0.634100000000     0.609700000000     0.186367   
H        H      0.379700000000     0.609300000000     0.521700000000     0.186367   
H        H      0.388200000000     0.543800000000     0.588400000000     0.186367   
H        H      0.088100000000     0.484900000000     0.130900000000     0.186367   
H        H      0.087700000000     0.580400000000     0.028800000000     0.186367   
H        H      0.078000000000     0.611400000000     0.807600000000     0.186367   
H        H      0.052500000000     0.587800000000     0.898200000000     0.186367   
H        H      0.150300000000     0.528200000000     0.832000000000     0.186367   
H        H      0.242400000000     0.167900000000     0.046300000000     0.186367   
H        H      0.338200000000     0.072300000000     0.947700000000     0.186367   
H        H      0.592500000000     0.865900000000     0.890300000000     0.186367   
H        H      0.510700000000     0.890700000000     0.978300000000     0.186367   
H        H      0.520400000000     0.956200000000     0.911600000000     0.186367   
H        H      0.411900000000     0.369100000000     0.015100000000     0.186367   
H        H      0.412300000000     0.471200000000     0.919600000000     0.186367   
H        H      0.422000000000     0.692400000000     0.888600000000     0.186367   
H        H      0.447500000000     0.601800000000     0.912200000000     0.186367   
H        H      0.349700000000     0.668000000000     0.971800000000     0.186367   
H        H      0.257600000000     0.453700000000     0.332100000000     0.186367   
H        H      0.161800000000     0.552300000000     0.427700000000     0.186367   
H        H      0.907500000000     0.609700000000     0.634100000000     0.186367   
H        H      0.989300000000     0.521700000000     0.609300000000     0.186367   
H        H      0.979600000000     0.588400000000     0.543800000000     0.186367   
H        H      0.203900000000     0.869100000000     0.515100000000     0.186367   
H        H      0.196900000000     0.971200000000     0.419600000000     0.186367   
H        H      0.997000000000     0.192400000000     0.388600000000     0.186367   
H        H      0.038500000000     0.101800000000     0.412200000000     0.186367   
H        H      0.010500000000     0.168000000000     0.471800000000     0.186367   
H        H      0.956600000000     0.953700000000     0.832100000000     0.186367   
H        H      0.858200000000     0.052300000000     0.927700000000     0.186367   
H        H      0.848700000000     0.109700000000     0.134100000000     0.186367   
H        H      0.879700000000     0.021700000000     0.109300000000     0.186367   
H        H      0.888200000000     0.088400000000     0.043800000000     0.186367   
H        H      0.296100000000     0.984900000000     0.630900000000     0.186367   
H        H      0.303100000000     0.080400000000     0.528800000000     0.186367   
H        H      0.503000000000     0.111400000000     0.307600000000     0.186367   
H        H      0.461500000000     0.087800000000     0.398200000000     0.186367   
H        H      0.489500000000     0.028200000000     0.332000000000     0.186367   
H        H      0.543400000000     0.667900000000     0.546300000000     0.186367   
H        H      0.641800000000     0.572300000000     0.447700000000     0.186367   
H        H      0.651300000000     0.365900000000     0.390300000000     0.186367   
H        H      0.620300000000     0.390700000000     0.478300000000     0.186367   
H        H      0.611800000000     0.456200000000     0.411600000000     0.186367   
H        H      0.911900000000     0.515100000000     0.869100000000     0.186367   
H        H      0.912300000000     0.419600000000     0.971200000000     0.186367   
H        H      0.922000000000     0.388600000000     0.192400000000     0.186367   
H        H      0.947500000000     0.412200000000     0.101800000000     0.186367   
H        H      0.849700000000     0.471800000000     0.168000000000     0.186367   
H        H      0.757600000000     0.832100000000     0.953700000000     0.186367   
H        H      0.661800000000     0.927700000000     0.052300000000     0.186367   
H        H      0.407500000000     0.134100000000     0.109700000000     0.186367   
H        H      0.489300000000     0.109300000000     0.021700000000     0.186367   
H        H      0.479600000000     0.043800000000     0.088400000000     0.186367   
H        H      0.588100000000     0.630900000000     0.984900000000     0.186367   
H        H      0.587700000000     0.528800000000     0.080400000000     0.186367   
H        H      0.578000000000     0.307600000000     0.111400000000     0.186367   
H        H      0.552500000000     0.398200000000     0.087800000000     0.186367   
H        H      0.650300000000     0.332000000000     0.028200000000     0.186367   
H        H      0.742400000000     0.546300000000     0.667900000000     0.186367   
H        H      0.838200000000     0.447700000000     0.572300000000     0.186367   
H        H      0.092500000000     0.390300000000     0.365900000000     0.186367   
H        H      0.010700000000     0.478300000000     0.390700000000     0.186367   
H        H      0.020400000000     0.411600000000     0.456200000000     0.186367   
C        C      0.778300000000     0.087700000000     0.480100000000    -0.101615   
C        C      0.780400000000     0.026200000000     0.539200000000    -0.101615   
C        C      0.841500000000     0.850100000000     0.619500000000    -0.101615   
C        C      0.959400000000     0.846700000000     0.583500000000    -0.101615   
C        C      0.103400000000     0.051200000000     0.124000000000    -0.101615   
C        C      0.162300000000     0.992100000000     0.065900000000    -0.101615   
C        C      0.272390000000     0.904110000000     0.893510000000    -0.101615   
C        C      0.153100000000     0.922800000000     0.902400000000    -0.101615   
C        C      0.721700000000     0.019900000000     0.412300000000    -0.101615   
C        C      0.719600000000     0.960800000000     0.473800000000    -0.101615   
C        C      0.658500000000     0.880500000000     0.649900000000    -0.101615   
C        C      0.540600000000     0.916500000000     0.653300000000    -0.101615   
C        C      0.396600000000     0.376000000000     0.448800000000    -0.101615   
C        C      0.337700000000     0.434100000000     0.507900000000    -0.101615   
C        C      0.227610000000     0.606490000000     0.595890000000    -0.101615   
C        C      0.346900000000     0.597600000000     0.577200000000    -0.101615   
C        C      0.153900000000     0.480100000000     0.087700000000    -0.101615   
C        C      0.154200000000     0.539200000000     0.026200000000    -0.101615   
C        C      0.188900000000     0.619500000000     0.850100000000    -0.101615   
C        C      0.110400000000     0.583500000000     0.846700000000    -0.101615   
C        C      0.221400000000     0.124000000000     0.051200000000    -0.101615   
C        C      0.279700000000     0.065900000000     0.992100000000    -0.101615   
C        C      0.429990000000     0.893510000000     0.904110000000    -0.101615   
C        C      0.521700000000     0.902400000000     0.922800000000    -0.101615   
C        C      0.346100000000     0.412300000000     0.019900000000    -0.101615   
C        C      0.345800000000     0.473800000000     0.960800000000    -0.101615   
C        C      0.311100000000     0.649900000000     0.880500000000    -0.101615   
C        C      0.389600000000     0.653300000000     0.916500000000    -0.101615   
C        C      0.278600000000     0.448800000000     0.376000000000    -0.101615   
C        C      0.220300000000     0.507900000000     0.434100000000    -0.101615   
C        C      0.070010000000     0.595890000000     0.606490000000    -0.101615   
C        C      0.978300000000     0.577200000000     0.597600000000    -0.101615   
C        C      0.221700000000     0.912300000000     0.519900000000    -0.101615   
C        C      0.219600000000     0.973800000000     0.460800000000    -0.101615   
C        C      0.158500000000     0.149900000000     0.380500000000    -0.101615   
C        C      0.040600000000     0.153300000000     0.416500000000    -0.101615   
C        C      0.896600000000     0.948800000000     0.876000000000    -0.101615   
C        C      0.837700000000     0.007900000000     0.934100000000    -0.101615   
C        C      0.727610000000     0.095890000000     0.106490000000    -0.101615   
C        C      0.846900000000     0.077200000000     0.097600000000    -0.101615   
C        C      0.278300000000     0.980100000000     0.587700000000    -0.101615   
C        C      0.280400000000     0.039200000000     0.526200000000    -0.101615   
C        C      0.341500000000     0.119500000000     0.350100000000    -0.101615   
C        C      0.459400000000     0.083500000000     0.346700000000    -0.101615   
C        C      0.603400000000     0.624000000000     0.551200000000    -0.101615   
C        C      0.662300000000     0.565900000000     0.492100000000    -0.101615   
C        C      0.772390000000     0.393510000000     0.404110000000    -0.101615   
C        C      0.653100000000     0.402400000000     0.422800000000    -0.101615   
C        C      0.846100000000     0.519900000000     0.912300000000    -0.101615   
C        C      0.845800000000     0.460800000000     0.973800000000    -0.101615   
C        C      0.811100000000     0.380500000000     0.149900000000    -0.101615   
C        C      0.889600000000     0.416500000000     0.153300000000    -0.101615   
C        C      0.778600000000     0.876000000000     0.948800000000    -0.101615   
C        C      0.720300000000     0.934100000000     0.007900000000    -0.101615   
C        C      0.570010000000     0.106490000000     0.095890000000    -0.101615   
C        C      0.478300000000     0.097600000000     0.077200000000    -0.101615   
C        C      0.653900000000     0.587700000000     0.980100000000    -0.101615   
C        C      0.654200000000     0.526200000000     0.039200000000    -0.101615   
C        C      0.688900000000     0.350100000000     0.119500000000    -0.101615   
C        C      0.610400000000     0.346700000000     0.083500000000    -0.101615   
C        C      0.721400000000     0.551200000000     0.624000000000    -0.101615   
C        C      0.779700000000     0.492100000000     0.565900000000    -0.101615   
C        C      0.929990000000     0.404110000000     0.393510000000    -0.101615   
C        C      0.021700000000     0.422800000000     0.402400000000    -0.101615   
C        C      0.750000000000     0.146400000000     0.353600000000    -0.101615   
C        C      0.750000000000     0.084100000000     0.415900000000    -0.101615   
C        C      0.750000000000     0.963300000000     0.536700000000    -0.101615   
C        C      0.750000000000     0.902200000000     0.597800000000    -0.101615   
C        C      0.250000000000     0.353600000000     0.146400000000    -0.101615   
C        C      0.250000000000     0.415900000000     0.084100000000    -0.101615   
C        C      0.250000000000     0.536700000000     0.963300000000    -0.101615   
C        C      0.250000000000     0.597800000000     0.902200000000    -0.101615   
C        C      0.250000000000     0.853600000000     0.646400000000    -0.101615   
C        C      0.250000000000     0.915900000000     0.584100000000    -0.101615   
C        C      0.250000000000     0.036700000000     0.463300000000    -0.101615   
C        C      0.250000000000     0.097800000000     0.402200000000    -0.101615   
C        C      0.750000000000     0.646400000000     0.853600000000    -0.101615   
C        C      0.750000000000     0.584100000000     0.915900000000    -0.101615   
C        C      0.750000000000     0.463300000000     0.036700000000    -0.101615   
C        C      0.750000000000     0.402200000000     0.097800000000    -0.101615   
C        C      0.069700000000     0.180300000000     0.180300000000    -0.101615   
C        C      0.132800000000     0.117200000000     0.117200000000    -0.101615   
C        C      0.252300000000     0.997700000000     0.997700000000    -0.101615   
C        C      0.314500000000     0.935500000000     0.935500000000    -0.101615   
C        C      0.430300000000     0.319700000000     0.319700000000    -0.101615   
C        C      0.367200000000     0.382800000000     0.382800000000    -0.101615   
C        C      0.247700000000     0.502300000000     0.502300000000    -0.101615   
C        C      0.185500000000     0.564500000000     0.564500000000    -0.101615   
C        C      0.930300000000     0.819700000000     0.819700000000    -0.101615   
C        C      0.867200000000     0.882800000000     0.882800000000    -0.101615   
C        C      0.747700000000     0.002300000000     0.002300000000    -0.101615   
C        C      0.685500000000     0.064500000000     0.064500000000    -0.101615   
C        C      0.569700000000     0.680300000000     0.680300000000    -0.101615   
C        C      0.632800000000     0.617200000000     0.617200000000    -0.101615   
C        C      0.752300000000     0.497700000000     0.497700000000    -0.101615   
C        C      0.814500000000     0.435500000000     0.435500000000    -0.101615   
N        N      0.806900000000     0.801290000000     0.678510000000    -0.190934   
N        N      0.354960000000     0.847260000000     0.842620000000    -0.190934   
N        N      0.693100000000     0.821490000000     0.698710000000    -0.190934   
N        N      0.145040000000     0.657380000000     0.652740000000    -0.190934   
N        N      0.213300000000     0.678510000000     0.801290000000    -0.190934   
N        N      0.455160000000     0.842620000000     0.847260000000    -0.190934   
N        N      0.286700000000     0.698710000000     0.821490000000    -0.190934   
N        N      0.044840000000     0.652740000000     0.657380000000    -0.190934   
N        N      0.193100000000     0.198710000000     0.321490000000    -0.190934   
N        N      0.645040000000     0.152740000000     0.157380000000    -0.190934   
N        N      0.306900000000     0.178510000000     0.301290000000    -0.190934   
N        N      0.854960000000     0.342620000000     0.347260000000    -0.190934   
N        N      0.786700000000     0.321490000000     0.198710000000    -0.190934   
N        N      0.544840000000     0.157380000000     0.152740000000    -0.190934   
N        N      0.713300000000     0.301290000000     0.178510000000    -0.190934   
N        N      0.955160000000     0.347260000000     0.342620000000    -0.190934   
O        O      0.763860000000     0.207320000000     0.365160000000    -0.325614   
O        O      0.980660000000     0.176100000000     0.234980000000    -0.325614   
O        O      0.736140000000     0.134840000000     0.292680000000    -0.325614   
O        O      0.519340000000     0.265020000000     0.323900000000    -0.325614   
O        O      0.163660000000     0.365160000000     0.207320000000    -0.325614   
O        O      0.108260000000     0.234980000000     0.176100000000    -0.325614   
O        O      0.336340000000     0.292680000000     0.134840000000    -0.325614   
O        O      0.391740000000     0.323900000000     0.265020000000    -0.325614   
O        O      0.236140000000     0.792680000000     0.634840000000    -0.325614   
O        O      0.019340000000     0.823900000000     0.765020000000    -0.325614   
O        O      0.263860000000     0.865160000000     0.707320000000    -0.325614   
O        O      0.480660000000     0.734980000000     0.676100000000    -0.325614   
O        O      0.836340000000     0.634840000000     0.792680000000    -0.325614   
O        O      0.891740000000     0.765020000000     0.823900000000    -0.325614   
O        O      0.663660000000     0.707320000000     0.865160000000    -0.325614   
O        O      0.608260000000     0.676100000000     0.734980000000    -0.325614   


