data_FIPWOS_original

_audit_creation_method RASPA-1.0
_audit_creation_date 2022-1-31
_audit_author_name 'Felipe Lopes de Oliveira <felipe.lopes.oliveira@ibm.com>'

_cell_length_a    9.1269
_cell_length_b    9.3427
_cell_length_c    9.604
_cell_angle_alpha 114.455
_cell_angle_beta  90
_cell_angle_gamma 90
_cell_volume      745.463

_symmetry_cell_setting          triclinic
_symmetry_space_group_name_Hall 'P 1'
_symmetry_space_group_name_H-M  'P 1'
_symmetry_Int_Tables_number     1

_symmetry_equiv_pos_as_xyz 'x,y,z'

loop_
_atom_site_label
_atom_site_type_symbol
_atom_site_fract_x
_atom_site_fract_y
_atom_site_fract_z
_atom_site_charge
Zn       Zn     0.564660000000     0.403590000000     0.284560000000     0.375955   
Zn       Zn     0.064660000000     0.596410000000     0.715440000000     0.375955   
H        H      0.276900000000     0.566400000000     0.454400000000     0.0923662  
H        H      0.431200000000     0.357300000000     0.842800000000     0.0923662  
H        H      0.262400000000     0.387700000000     0.845300000000     0.0923662  
H        H      0.574400000000     0.620600000000     0.912400000000     0.0923662  
H        H      0.559400000000     0.338300000000     0.592100000000     0.0923662  
H        H      0.678800000000     0.078900000000     0.252200000000     0.0923662  
H        H      0.767200000000     0.111800000000     0.128700000000     0.0923662  
H        H      0.289700000000     0.651200000000     0.000000000000     0.0923662  
H        H      0.661200000000     0.892400000000     0.933900000000     0.0923662  
H        H      0.742300000000     0.841500000000     0.050000000000     0.0923662  
H        H      0.550000000000     0.161000000000     0.046000000000     0.0923662  
H        H      0.476000000000     0.133000000000     0.159000000000     0.0923662  
H        H      0.776900000000     0.433600000000     0.545600000000     0.0923662  
H        H      0.931200000000     0.642700000000     0.157200000000     0.0923662  
H        H      0.762400000000     0.612300000000     0.154700000000     0.0923662  
H        H      0.074400000000     0.379400000000     0.087600000000     0.0923662  
H        H      0.059400000000     0.661700000000     0.407900000000     0.0923662  
H        H      0.178800000000     0.921100000000     0.747800000000     0.0923662  
H        H      0.267200000000     0.888200000000     0.871300000000     0.0923662  
H        H      0.789700000000     0.348800000000     0.000000000000     0.0923662  
H        H      0.161200000000     0.107600000000     0.066100000000     0.0923662  
H        H      0.242300000000     0.158500000000     0.950000000000     0.0923662  
H        H      0.050000000000     0.839000000000     0.954000000000     0.0923662  
H        H      0.976000000000     0.867000000000     0.841000000000     0.0923662  
C        C      0.323200000000     0.521500000000     0.512900000000     0.0312633  
C        C      0.357800000000     0.432100000000     0.842200000000     0.0312633  
C        C      0.478300000000     0.396500000000     0.587700000000     0.0312633  
C        C      0.370600000000     0.451200000000     0.696400000000     0.0312633  
C        C      0.675100000000     0.071900000000     0.148700000000     0.0312633  
C        C      0.384600000000     0.538400000000     0.122900000000     0.0312633  
C        C      0.376300000000     0.584900000000     0.987600000000     0.0312633  
C        C      0.659200000000     0.900000000000     0.037700000000     0.0312633  
C        C      0.519800000000     0.825500000000     0.060700000000     0.0312633  
C        C      0.823200000000     0.478500000000     0.487100000000     0.0312633  
C        C      0.857800000000     0.567900000000     0.157800000000     0.0312633  
C        C      0.978300000000     0.603500000000     0.412300000000     0.0312633  
C        C      0.870600000000     0.548800000000     0.303600000000     0.0312633  
C        C      0.175100000000     0.928100000000     0.851300000000     0.0312633  
C        C      0.884600000000     0.461600000000     0.877100000000     0.0312633  
C        C      0.876300000000     0.415100000000     0.012400000000     0.0312633  
C        C      0.159200000000     0.100000000000     0.962300000000     0.0312633  
C        C      0.019800000000     0.174500000000     0.939300000000     0.0312633  
N        N      0.552800000000     0.173500000000     0.137200000000    -0.233322   
N        N      0.505900000000     0.670300000000     0.975300000000    -0.233322   
N        N      0.447500000000     0.441000000000     0.470900000000    -0.233322   
N        N      0.270500000000     0.532300000000     0.646700000000    -0.233322   
N        N      0.052800000000     0.826500000000     0.862800000000    -0.233322   
N        N      0.005900000000     0.329700000000     0.024700000000    -0.233322   
N        N      0.947500000000     0.559000000000     0.529100000000    -0.233322   
N        N      0.770500000000     0.467700000000     0.353300000000    -0.233322   
O        O      0.513560000000     0.524400000000     0.167100000000    -0.277477   
O        O      0.269100000000     0.509400000000     0.174400000000    -0.277477   
O        O      0.422700000000     0.902900000000     0.150600000000    -0.277477   
O        O      0.013560000000     0.475600000000     0.832900000000    -0.277477   
O        O      0.769100000000     0.490600000000     0.825600000000    -0.277477   
O        O      0.922700000000     0.097100000000     0.849400000000    -0.277477   


