data_FIPXEJ_original

_audit_creation_method RASPA-1.0
_audit_creation_date 2022-1-31
_audit_author_name 'Felipe Lopes de Oliveira <felipe.lopes.oliveira@ibm.com>'

_cell_length_a    8.9687
_cell_length_b    10.906
_cell_length_c    14.585
_cell_angle_alpha 96.567
_cell_angle_beta  90
_cell_angle_gamma 90
_cell_volume      1417.24

_symmetry_cell_setting          triclinic
_symmetry_space_group_name_Hall 'P 1'
_symmetry_space_group_name_H-M  'P 1'
_symmetry_Int_Tables_number     1

_symmetry_equiv_pos_as_xyz 'x,y,z'

loop_
_atom_site_label
_atom_site_type_symbol
_atom_site_fract_x
_atom_site_fract_y
_atom_site_fract_z
_atom_site_charge
Zn       Zn     0.253280000000     0.065200000000     0.280970000000     0.377639   
Zn       Zn     0.747550000000     0.369130000000     0.187820000000     0.377639   
Zn       Zn     0.753280000000     0.934800000000     0.719030000000     0.377639   
Zn       Zn     0.247550000000     0.630870000000     0.812180000000     0.377639   
H        H      0.143500000000     0.426600000000     0.758100000000     0.0834049  
H        H      0.156000000000     0.496100000000     0.677100000000     0.0834049  
H        H      0.550400000000     0.200000000000     0.279300000000     0.0834049  
H        H      0.248200000000     0.184900000000     0.081700000000     0.0834049  
H        H      0.561600000000     0.514700000000     0.063700000000     0.0834049  
H        H      0.363600000000     0.332800000000     0.974000000000     0.0834049  
H        H      0.541500000000     0.325200000000     0.976400000000     0.0834049  
H        H      0.257400000000     0.603000000000     0.288000000000     0.0834049  
H        H      0.156100000000     0.649700000000     0.208700000000     0.0834049  
H        H      0.123400000000     0.878300000000     0.210600000000     0.0834049  
H        H      0.277200000000     0.874700000000     0.173200000000     0.0834049  
H        H      0.196400000000     0.799300000000     0.341800000000     0.0834049  
H        H      0.366300000000     0.806600000000     0.310000000000     0.0834049  
H        H      0.258500000000     0.732800000000     0.614100000000     0.0834049  
H        H      0.258700000000     0.504600000000     0.102200000000     0.0834049  
H        H      0.606400000000     0.029800000000     0.544100000000     0.0834049  
H        H      0.328700000000     0.049800000000     0.614600000000     0.0834049  
H        H      0.387100000000     0.363000000000     0.744600000000     0.0834049  
H        H      0.406400000000     0.442800000000     0.659800000000     0.0834049  
H        H      0.550100000000     0.777100000000     0.818300000000     0.0834049  
H        H      0.216800000000     0.231700000000     0.659600000000     0.0834049  
H        H      0.222800000000     0.314900000000     0.576200000000     0.0834049  
H        H      0.381900000000     0.847200000000     0.495000000000     0.0834049  
H        H      0.556900000000     0.823800000000     0.498400000000     0.0834049  
H        H      0.643500000000     0.573400000000     0.241900000000     0.0834049  
H        H      0.656000000000     0.503900000000     0.322900000000     0.0834049  
H        H      0.050400000000     0.800000000000     0.720700000000     0.0834049  
H        H      0.748200000000     0.815100000000     0.918300000000     0.0834049  
H        H      0.061600000000     0.485300000000     0.936300000000     0.0834049  
H        H      0.863600000000     0.667200000000     0.026000000000     0.0834049  
H        H      0.041500000000     0.674800000000     0.023600000000     0.0834049  
H        H      0.757400000000     0.397000000000     0.712000000000     0.0834049  
H        H      0.656100000000     0.350300000000     0.791300000000     0.0834049  
H        H      0.623400000000     0.121700000000     0.789400000000     0.0834049  
H        H      0.777200000000     0.125300000000     0.826800000000     0.0834049  
H        H      0.696400000000     0.200700000000     0.658200000000     0.0834049  
H        H      0.866300000000     0.193400000000     0.690000000000     0.0834049  
H        H      0.758500000000     0.267200000000     0.385900000000     0.0834049  
H        H      0.758700000000     0.495400000000     0.897800000000     0.0834049  
H        H      0.106400000000     0.970200000000     0.455900000000     0.0834049  
H        H      0.828700000000     0.950200000000     0.385400000000     0.0834049  
H        H      0.887100000000     0.637000000000     0.255400000000     0.0834049  
H        H      0.906400000000     0.557200000000     0.340200000000     0.0834049  
H        H      0.050100000000     0.222900000000     0.181700000000     0.0834049  
H        H      0.716800000000     0.768300000000     0.340400000000     0.0834049  
H        H      0.722800000000     0.685100000000     0.423800000000     0.0834049  
H        H      0.881900000000     0.152800000000     0.505000000000     0.0834049  
H        H      0.056900000000     0.176200000000     0.501600000000     0.0834049  
C        C      0.500000000000     0.213200000000     0.224000000000     0.0321149  
C        C      0.335500000000     0.205100000000     0.117100000000     0.0321149  
C        C      0.444100000000     0.283300000000     0.094400000000     0.0321149  
C        C      0.439100000000     0.552100000000     0.947600000000     0.0321149  
C        C      0.460500000000     0.492500000000     0.038000000000     0.0321149  
C        C      0.452400000000     0.352700000000     0.013100000000     0.0321149  
C        C      0.253300000000     0.661000000000     0.240600000000     0.0321149  
C        C      0.263200000000     0.791200000000     0.287400000000     0.0321149  
C        C      0.457600000000     0.828400000000     0.622800000000     0.0321149  
C        C      0.343800000000     0.758400000000     0.650000000000     0.0321149  
C        C      0.481400000000     0.026500000000     0.422900000000     0.0321149  
C        C      0.502100000000     0.007900000000     0.524300000000     0.0321149  
C        C      0.375400000000     0.630000000000     0.172200000000     0.0321149  
C        C      0.334700000000     0.393500000000     0.691900000000     0.0321149  
C        C      0.502900000000     0.781900000000     0.760500000000     0.0321149  
C        C      0.282600000000     0.284000000000     0.625800000000     0.0321149  
C        C      0.473800000000     0.870700000000     0.530300000000     0.0321149  
C        C      0.406100000000     0.207300000000     0.583400000000     0.0321149  
C        C      0.000000000000     0.786800000000     0.776000000000     0.0321149  
C        C      0.835500000000     0.794900000000     0.882900000000     0.0321149  
C        C      0.944100000000     0.716700000000     0.905600000000     0.0321149  
C        C      0.939100000000     0.447900000000     0.052400000000     0.0321149  
C        C      0.960500000000     0.507500000000     0.962000000000     0.0321149  
C        C      0.952400000000     0.647300000000     0.986900000000     0.0321149  
C        C      0.753300000000     0.339000000000     0.759400000000     0.0321149  
C        C      0.763200000000     0.208800000000     0.712600000000     0.0321149  
C        C      0.957600000000     0.171600000000     0.377200000000     0.0321149  
C        C      0.843800000000     0.241600000000     0.350000000000     0.0321149  
C        C      0.981400000000     0.973500000000     0.577100000000     0.0321149  
C        C      0.002100000000     0.992100000000     0.475700000000     0.0321149  
C        C      0.875400000000     0.370000000000     0.827800000000     0.0321149  
C        C      0.834700000000     0.606500000000     0.308100000000     0.0321149  
C        C      0.002900000000     0.218100000000     0.239500000000     0.0321149  
C        C      0.782600000000     0.716000000000     0.374200000000     0.0321149  
C        C      0.973800000000     0.129300000000     0.469700000000     0.0321149  
C        C      0.906100000000     0.792700000000     0.416600000000     0.0321149  
N        N      0.207000000000     0.474200000000     0.727500000000    -0.213367   
N        N      0.373000000000     0.730600000000     0.738200000000    -0.213367   
N        N      0.369900000000     0.159200000000     0.199000000000    -0.213367   
N        N      0.553600000000     0.287700000000     0.164200000000    -0.213367   
N        N      0.222300000000     0.888300000000     0.226600000000    -0.213367   
N        N      0.563300000000     0.842800000000     0.692500000000    -0.213367   
N        N      0.347900000000     0.538500000000     0.105600000000    -0.213367   
N        N      0.396500000000     0.083600000000     0.581900000000    -0.213367   
N        N      0.707000000000     0.525800000000     0.272500000000    -0.213367   
N        N      0.873000000000     0.269400000000     0.261800000000    -0.213367   
N        N      0.869900000000     0.840800000000     0.801000000000    -0.213367   
N        N      0.053600000000     0.712300000000     0.835800000000    -0.213367   
N        N      0.722300000000     0.111700000000     0.773400000000    -0.213367   
N        N      0.063300000000     0.157200000000     0.307500000000    -0.213367   
N        N      0.847900000000     0.461500000000     0.894400000000    -0.213367   
N        N      0.896500000000     0.916400000000     0.418100000000    -0.213367   
O        O      0.312300000000     0.602800000000     0.935000000000    -0.271355   
O        O      0.543100000000     0.544200000000     0.890200000000    -0.271355   
O        O      0.351500000000     0.060900000000     0.400000000000    -0.271355   
O        O      0.500100000000     0.680800000000     0.180400000000    -0.271355   
O        O      0.589200000000     0.000200000000     0.369400000000    -0.271355   
O        O      0.515300000000     0.255100000000     0.547300000000    -0.271355   
O        O      0.812300000000     0.397200000000     0.065000000000    -0.271355   
O        O      0.043100000000     0.455800000000     0.109800000000    -0.271355   
O        O      0.851500000000     0.939100000000     0.600000000000    -0.271355   
O        O      0.000100000000     0.319200000000     0.819600000000    -0.271355   
O        O      0.089200000000     0.999800000000     0.630600000000    -0.271355   
O        O      0.015300000000     0.744900000000     0.452700000000    -0.271355   


