data_FIQYOU_original

_audit_creation_method RASPA-1.0
_audit_creation_date 2022-1-31
_audit_author_name 'Felipe Lopes de Oliveira <felipe.lopes.oliveira@ibm.com>'

_cell_length_a    9.9304
_cell_length_b    11.4446
_cell_length_c    14.6192
_cell_angle_alpha 91.423
_cell_angle_beta  90
_cell_angle_gamma 90
_cell_volume      1660.95

_symmetry_cell_setting          triclinic
_symmetry_space_group_name_Hall 'P 1'
_symmetry_space_group_name_H-M  'P 1'
_symmetry_Int_Tables_number     1

_symmetry_equiv_pos_as_xyz 'x,y,z'

loop_
_atom_site_label
_atom_site_type_symbol
_atom_site_fract_x
_atom_site_fract_y
_atom_site_fract_z
_atom_site_charge
Fe       Fe     0.918800000000     0.755530000000     0.632400000000     0.938771   
Fe       Fe     0.607310000000     0.760050000000     0.687700000000     0.938771   
Fe       Fe     0.418800000000     0.744470000000     0.867600000000     0.938771   
Fe       Fe     0.107310000000     0.739950000000     0.812300000000     0.938771   
Fe       Fe     0.081200000000     0.244470000000     0.367600000000     0.938771   
Fe       Fe     0.392690000000     0.239950000000     0.312300000000     0.938771   
Fe       Fe     0.581200000000     0.255530000000     0.132400000000     0.938771   
Fe       Fe     0.892690000000     0.260050000000     0.187700000000     0.938771   
Fe       Fe     0.000000000000     0.500000000000     0.500000000000     0.938771   
Fe       Fe     0.500000000000     0.000000000000     0.000000000000     0.938771   
Fe       Fe     0.000000000000     0.000000000000     0.500000000000     0.938771   
Fe       Fe     0.500000000000     0.500000000000     0.000000000000     0.938771   
H        H      0.149000000000     0.713000000000     0.426000000000    -0.141991   
H        H      0.695000000000     0.986000000000     0.502000000000    -0.141991   
H        H      0.742000000000     0.854000000000     0.868000000000    -0.141991   
H        H      0.613000000000     0.546000000000     0.537000000000    -0.141991   
H        H      0.176000000000     0.973000000000     0.726000000000    -0.141991   
H        H      0.049000000000     0.479000000000     0.765000000000    -0.141991   
H        H      0.649000000000     0.787000000000     0.074000000000    -0.141991   
H        H      0.195000000000     0.514000000000     0.998000000000    -0.141991   
H        H      0.242000000000     0.646000000000     0.632000000000    -0.141991   
H        H      0.113000000000     0.954000000000     0.963000000000    -0.141991   
H        H      0.676000000000     0.527000000000     0.774000000000    -0.141991   
H        H      0.549000000000     0.021000000000     0.735000000000    -0.141991   
H        H      0.851000000000     0.287000000000     0.574000000000    -0.141991   
H        H      0.305000000000     0.014000000000     0.498000000000    -0.141991   
H        H      0.258000000000     0.146000000000     0.132000000000    -0.141991   
H        H      0.387000000000     0.454000000000     0.463000000000    -0.141991   
H        H      0.824000000000     0.027000000000     0.274000000000    -0.141991   
H        H      0.951000000000     0.521000000000     0.235000000000    -0.141991   
H        H      0.351000000000     0.213000000000     0.926000000000    -0.141991   
H        H      0.805000000000     0.486000000000     0.002000000000    -0.141991   
H        H      0.758000000000     0.354000000000     0.368000000000    -0.141991   
H        H      0.887000000000     0.046000000000     0.037000000000    -0.141991   
H        H      0.324000000000     0.473000000000     0.226000000000    -0.141991   
H        H      0.451000000000     0.979000000000     0.265000000000    -0.141991   
C        C      0.103700000000     0.744000000000     0.468200000000     0.570245   
C        C      0.718300000000     0.928400000000     0.549600000000     0.570245   
C        C      0.824300000000     0.829100000000     0.830900000000     0.570245   
C        C      0.710500000000     0.574000000000     0.548200000000     0.570245   
C        C      0.123500000000     0.955100000000     0.688900000000     0.570245   
C        C      0.014900000000     0.519600000000     0.711400000000     0.570245   
C        C      0.603700000000     0.756000000000     0.031800000000     0.570245   
C        C      0.218300000000     0.571600000000     0.950400000000     0.570245   
C        C      0.324300000000     0.670900000000     0.669100000000     0.570245   
C        C      0.210500000000     0.926000000000     0.951800000000     0.570245   
C        C      0.623500000000     0.544900000000     0.811100000000     0.570245   
C        C      0.514900000000     0.980400000000     0.788600000000     0.570245   
C        C      0.896300000000     0.256000000000     0.531800000000     0.570245   
C        C      0.281700000000     0.071600000000     0.450400000000     0.570245   
C        C      0.175700000000     0.170900000000     0.169100000000     0.570245   
C        C      0.289500000000     0.426000000000     0.451800000000     0.570245   
C        C      0.876500000000     0.044900000000     0.311100000000     0.570245   
C        C      0.985100000000     0.480400000000     0.288600000000     0.570245   
C        C      0.396300000000     0.244000000000     0.968200000000     0.570245   
C        C      0.781700000000     0.428400000000     0.049600000000     0.570245   
C        C      0.675700000000     0.329100000000     0.330900000000     0.570245   
C        C      0.789500000000     0.074000000000     0.048200000000     0.570245   
C        C      0.376500000000     0.455100000000     0.188900000000     0.570245   
C        C      0.485100000000     0.019600000000     0.211400000000     0.570245   
O        O      0.027100000000     0.687200000000     0.521700000000    -0.44882    
O        O      0.112300000000     0.850300000000     0.463000000000    -0.44882    
O        O      0.841600000000     0.897600000000     0.559800000000    -0.44882    
O        O      0.621200000000     0.888400000000     0.591000000000    -0.44882    
O        O      0.797800000000     0.806900000000     0.747100000000    -0.44882    
O        O      0.934800000000     0.813900000000     0.868700000000    -0.44882    
O        O      0.740600000000     0.652400000000     0.606700000000    -0.44882    
O        O      0.791200000000     0.516600000000     0.499800000000    -0.44882    
O        O      0.082000000000     0.851100000000     0.696800000000    -0.44882    
O        O      0.100400000000     0.021600000000     0.626900000000    -0.44882    
O        O      0.003400000000     0.628100000000     0.718500000000    -0.44882    
O        O      0.003600000000     0.458600000000     0.640500000000    -0.44882    
O        O      0.527100000000     0.812800000000     0.978300000000    -0.44882    
O        O      0.612300000000     0.649700000000     0.037000000000    -0.44882    
O        O      0.341600000000     0.602400000000     0.940200000000    -0.44882    
O        O      0.121200000000     0.611600000000     0.909000000000    -0.44882    
O        O      0.297800000000     0.693100000000     0.752900000000    -0.44882    
O        O      0.434800000000     0.686100000000     0.631300000000    -0.44882    
O        O      0.240600000000     0.847600000000     0.893300000000    -0.44882    
O        O      0.291200000000     0.983400000000     0.000200000000    -0.44882    
O        O      0.582000000000     0.648900000000     0.803200000000    -0.44882    
O        O      0.600400000000     0.478400000000     0.873100000000    -0.44882    
O        O      0.503400000000     0.871900000000     0.781500000000    -0.44882    
O        O      0.503600000000     0.041400000000     0.859500000000    -0.44882    
O        O      0.972900000000     0.312800000000     0.478300000000    -0.44882    
O        O      0.887700000000     0.149700000000     0.537000000000    -0.44882    
O        O      0.158400000000     0.102400000000     0.440200000000    -0.44882    
O        O      0.378800000000     0.111600000000     0.409000000000    -0.44882    
O        O      0.202200000000     0.193100000000     0.252900000000    -0.44882    
O        O      0.065200000000     0.186100000000     0.131300000000    -0.44882    
O        O      0.259400000000     0.347600000000     0.393300000000    -0.44882    
O        O      0.208800000000     0.483400000000     0.500200000000    -0.44882    
O        O      0.918000000000     0.148900000000     0.303200000000    -0.44882    
O        O      0.899600000000     0.978400000000     0.373100000000    -0.44882    
O        O      0.996600000000     0.371900000000     0.281500000000    -0.44882    
O        O      0.996400000000     0.541400000000     0.359500000000    -0.44882    
O        O      0.472900000000     0.187200000000     0.021700000000    -0.44882    
O        O      0.387700000000     0.350300000000     0.963000000000    -0.44882    
O        O      0.658400000000     0.397600000000     0.059800000000    -0.44882    
O        O      0.878800000000     0.388400000000     0.091000000000    -0.44882    
O        O      0.702200000000     0.306900000000     0.247100000000    -0.44882    
O        O      0.565200000000     0.313900000000     0.368700000000    -0.44882    
O        O      0.759400000000     0.152400000000     0.106700000000    -0.44882    
O        O      0.708800000000     0.016600000000     0.999800000000    -0.44882    
O        O      0.418000000000     0.351100000000     0.196800000000    -0.44882    
O        O      0.399600000000     0.521600000000     0.126900000000    -0.44882    
O        O      0.496600000000     0.128100000000     0.218500000000    -0.44882    
O        O      0.496400000000     0.958600000000     0.140500000000    -0.44882    


