data_FIVYUF_original

_audit_creation_method RASPA-1.0
_audit_creation_date 2022-1-29
_audit_author_name 'Felipe Lopes de Oliveira <felipe.lopes.oliveira@ibm.com>'

_cell_length_a    9.5792
_cell_length_b    14.1333
_cell_length_c    22.7191
_cell_angle_alpha 78.2965
_cell_angle_beta  77.8297
_cell_angle_gamma 70.1909
_cell_volume      2799.77

_symmetry_cell_setting          triclinic
_symmetry_space_group_name_Hall 'P 1'
_symmetry_space_group_name_H-M  'P 1'
_symmetry_Int_Tables_number     1

_symmetry_equiv_pos_as_xyz 'x,y,z'

loop_
_atom_site_label
_atom_site_type_symbol
_atom_site_fract_x
_atom_site_fract_y
_atom_site_fract_z
_atom_site_charge
Sn       Sn     0.615140000000     0.865010000000     0.234170000000     1.17614    
Sn       Sn     0.405010000000     0.247980000000     0.495180000000     1.17614    
Sn       Sn     0.684050000000     0.187220000000     0.034400000000     1.17614    
Sn       Sn     0.285680000000     0.365010000000     0.734170000000     1.17614    
Sn       Sn     0.851830000000     0.747980000000     0.995180000000     1.17614    
Sn       Sn     0.094330000000     0.687220000000     0.534400000000     1.17614    
H        H      0.569200000000     0.015800000000     0.345200000000     0.0791821  
H        H      0.401600000000     0.311100000000     0.274100000000     0.0791821  
H        H      0.447800000000     0.258400000000     0.178400000000     0.0791821  
H        H      0.834000000000     0.946300000000     0.200700000000     0.0791821  
H        H      0.816500000000     0.905000000000     0.143200000000     0.0791821  
H        H      0.979700000000     0.783500000000     0.238100000000     0.0791821  
H        H      0.955600000000     0.737800000000     0.183200000000     0.0791821  
H        H      0.104400000000     0.892200000000     0.164200000000     0.0791821  
H        H      0.085500000000     0.841600000000     0.110600000000     0.0791821  
H        H      0.239300000000     0.680400000000     0.157800000000     0.0791821  
H        H      0.327400000000     0.761100000000     0.128700000000     0.0791821  
H        H      0.275000000000     0.743600000000     0.200600000000     0.0791821  
H        H      0.417600000000     0.842600000000     0.329200000000     0.0791821  
H        H      0.403400000000     0.783000000000     0.279600000000     0.0791821  
H        H      0.264800000000     0.994800000000     0.281000000000     0.0791821  
H        H      0.248200000000     0.933200000000     0.232400000000     0.0791821  
H        H      0.142800000000     0.901500000000     0.359700000000     0.0791821  
H        H      0.130700000000     0.835900000000     0.312500000000     0.0791821  
H        H      0.974200000000     0.998200000000     0.263800000000     0.0791821  
H        H      0.899700000000     0.946200000000     0.326200000000     0.0791821  
H        H      0.960100000000     0.038900000000     0.326300000000     0.0791821  
H        H      0.782800000000     0.522200000000     0.992400000000     0.0791821  
H        H      0.533700000000     0.452000000000     0.153600000000     0.0791821  
H        H      0.546700000000     0.594300000000     0.185900000000     0.0791821  
H        H      0.515600000000     0.389400000000     0.434000000000     0.0791821  
H        H      0.652300000000     0.291100000000     0.449700000000     0.0791821  
H        H      0.485000000000     0.424500000000     0.537700000000     0.0791821  
H        H      0.638200000000     0.333900000000     0.545500000000     0.0791821  
H        H      0.621200000000     0.511300000000     0.454100000000     0.0791821  
H        H      0.773900000000     0.422700000000     0.465900000000     0.0791821  
H        H      0.727700000000     0.465500000000     0.568100000000     0.0791821  
H        H      0.765200000000     0.551900000000     0.515700000000     0.0791821  
H        H      0.595200000000     0.563600000000     0.547000000000     0.0791821  
H        H      0.172900000000     0.195700000000     0.552500000000     0.0791821  
H        H      0.302600000000     0.095400000000     0.534400000000     0.0791821  
H        H      0.245800000000     0.132300000000     0.434500000000     0.0791821  
H        H      0.124200000000     0.237800000000     0.448800000000     0.0791821  
H        H      0.092400000000     0.047200000000     0.503000000000     0.0791821  
H        H      0.968500000000     0.154900000000     0.511700000000     0.0791821  
H        H      0.065400000000     0.068400000000     0.402000000000     0.0791821  
H        H      0.901900000000     0.087700000000     0.441900000000     0.0791821  
H        H      0.955600000000     0.182000000000     0.405600000000     0.0791821  
H        H      0.870400000000     0.779700000000     0.421100000000     0.0791821  
H        H      0.890100000000     0.546800000000     0.338400000000     0.0791821  
H        H      0.051200000000     0.436500000000     0.401700000000     0.0791821  
H        H      0.908800000000     0.070900000000     0.090700000000     0.0791821  
H        H      0.775000000000     0.121500000000     0.140700000000     0.0791821  
H        H      0.847400000000     0.275600000000     0.113600000000     0.0791821  
H        H      0.988600000000     0.217500000000     0.068100000000     0.0791821  
H        H      0.082100000000     0.095200000000     0.153200000000     0.0791821  
H        H      0.942100000000     0.155000000000     0.198400000000     0.0791821  
H        H      0.027300000000     0.297300000000     0.178500000000     0.0791821  
H        H      0.168800000000     0.201200000000     0.193400000000     0.0791821  
H        H      0.153500000000     0.251500000000     0.124300000000     0.0791821  
H        H      0.499700000000     0.160900000000     0.973900000000     0.0791821  
H        H      0.565700000000     0.247800000000     0.934400000000     0.0791821  
H        H      0.391800000000     0.371500000000     0.986100000000     0.0791821  
H        H      0.345000000000     0.289900000000     0.039500000000     0.0791821  
H        H      0.282000000000     0.321300000000     0.919300000000     0.0791821  
H        H      0.232700000000     0.241900000000     0.973500000000     0.0791821  
H        H      0.119500000000     0.457500000000     0.972100000000     0.0791821  
H        H      0.027400000000     0.390900000000     0.958300000000     0.0791821  
H        H      0.067700000000     0.377000000000     0.025000000000     0.0791821  
H        H      0.069800000000     0.515800000000     0.845200000000     0.0791821  
H        H      0.013200000000     0.811100000000     0.774100000000     0.0791821  
H        H      0.115400000000     0.758400000000     0.678400000000     0.0791821  
H        H      0.019000000000     0.446300000000     0.700700000000     0.0791821  
H        H      0.135300000000     0.405000000000     0.643200000000     0.0791821  
H        H      0.998700000000     0.283500000000     0.738100000000     0.0791821  
H        H      0.123400000000     0.237800000000     0.683200000000     0.0791821  
H        H      0.839200000000     0.392200000000     0.664200000000     0.0791821  
H        H      0.962300000000     0.341600000000     0.610600000000     0.0791821  
H        H      0.922500000000     0.180400000000     0.657800000000     0.0791821  
H        H      0.782800000000     0.261100000000     0.628700000000     0.0791821  
H        H      0.780800000000     0.243600000000     0.700600000000     0.0791821  
H        H      0.410600000000     0.342600000000     0.829200000000     0.0791821  
H        H      0.534000000000     0.283000000000     0.779600000000     0.0791821  
H        H      0.459400000000     0.494800000000     0.781000000000     0.0791821  
H        H      0.586200000000     0.433200000000     0.732400000000     0.0791821  
H        H      0.596000000000     0.401500000000     0.859700000000     0.0791821  
H        H      0.720900000000     0.335900000000     0.812500000000     0.0791821  
H        H      0.763800000000     0.498200000000     0.763800000000     0.0791821  
H        H      0.827900000000     0.446200000000     0.826200000000     0.0791821  
H        H      0.674700000000     0.538900000000     0.826300000000     0.0791821  
H        H      0.702600000000     0.022200000000     0.492400000000     0.0791821  
H        H      0.860700000000     0.952000000000     0.653600000000     0.0791821  
H        H      0.673100000000     0.094300000000     0.685900000000     0.0791821  
H        H      0.661000000000     0.889400000000     0.934000000000     0.0791821  
H        H      0.606900000000     0.791100000000     0.949700000000     0.0791821  
H        H      0.552800000000     0.924500000000     0.037700000000     0.0791821  
H        H      0.482400000000     0.833900000000     0.045500000000     0.0791821  
H        H      0.413400000000     0.011300000000     0.954100000000     0.0791821  
H        H      0.337500000000     0.922700000000     0.965900000000     0.0791821  
H        H      0.238700000000     0.965500000000     0.068100000000     0.0791821  
H        H      0.167200000000     0.051900000000     0.015700000000     0.0791821  
H        H      0.294200000000     0.063600000000     0.047000000000     0.0791821  
H        H      0.078900000000     0.695700000000     0.052500000000     0.0791821  
H        H      0.067600000000     0.595400000000     0.034400000000     0.0791821  
H        H      0.187400000000     0.632300000000     0.934500000000     0.0791821  
H        H      0.189200000000     0.737800000000     0.948800000000     0.0791821  
H        H      0.357400000000     0.547200000000     0.003000000000     0.0791821  
H        H      0.364900000000     0.654900000000     0.011700000000     0.0791821  
H        H      0.464200000000     0.568400000000     0.902000000000     0.0791821  
H        H      0.568500000000     0.587700000000     0.941900000000     0.0791821  
H        H      0.456800000000     0.682000000000     0.905600000000     0.0791821  
H        H      0.928800000000     0.279700000000     0.921100000000     0.0791821  
H        H      0.224700000000     0.046800000000     0.838400000000     0.0791821  
H        H      0.110600000000     0.936500000000     0.901700000000     0.0791821  
H        H      0.929600000000     0.570900000000     0.590700000000     0.0791821  
H        H      0.962800000000     0.621500000000     0.640700000000     0.0791821  
H        H      0.763400000000     0.775600000000     0.613600000000     0.0791821  
H        H      0.725800000000     0.717500000000     0.568100000000     0.0791821  
H        H      0.669500000000     0.595200000000     0.653200000000     0.0791821  
H        H      0.704500000000     0.655000000000     0.698400000000     0.0791821  
H        H      0.496900000000     0.797300000000     0.678500000000     0.0791821  
H        H      0.436600000000     0.701200000000     0.693400000000     0.0791821  
H        H      0.470700000000     0.751500000000     0.624300000000     0.0791821  
H        H      0.365500000000     0.660900000000     0.473900000000     0.0791821  
H        H      0.252100000000     0.747800000000     0.434400000000     0.0791821  
H        H      0.250600000000     0.871500000000     0.486100000000     0.0791821  
H        H      0.325600000000     0.789900000000     0.539500000000     0.0791821  
H        H      0.477400000000     0.821300000000     0.419300000000     0.0791821  
H        H      0.551900000000     0.741900000000     0.473500000000     0.0791821  
H        H      0.450900000000     0.957500000000     0.472100000000     0.0791821  
H        H      0.623400000000     0.890900000000     0.458300000000     0.0791821  
H        H      0.530300000000     0.877000000000     0.525000000000     0.0791821  
C        C      0.537200000000     0.065700000000     0.311700000000    -0.0797378  
C        C      0.487400000000     0.167400000000     0.318200000000    -0.0797378  
C        C      0.443200000000     0.241200000000     0.269400000000    -0.0797378  
C        C      0.461500000000     0.209800000000     0.214000000000    -0.0797378  
C        C      0.499800000000     0.107600000000     0.210200000000    -0.0797378  
C        C      0.504400000000     0.068600000000     0.154000000000    -0.0797378  
C        C      0.470300000000     0.198300000000     0.380300000000    -0.0797378  
C        C      0.823300000000     0.887100000000     0.187100000000    -0.0797378  
C        C      0.964400000000     0.799000000000     0.195000000000    -0.0797378  
C        C      0.100600000000     0.828600000000     0.153600000000    -0.0797378  
C        C      0.248600000000     0.746200000000     0.160800000000    -0.0797378  
C        C      0.409800000000     0.848600000000     0.285800000000    -0.0797378  
C        C      0.261900000000     0.928100000000     0.275100000000    -0.0797378  
C        C      0.129500000000     0.904400000000     0.317200000000    -0.0797378  
C        C      0.977600000000     0.978400000000     0.307600000000    -0.0797378  
C        C      0.735100000000     0.536000000000     0.032200000000    -0.0797378  
C        C      0.660100000000     0.471300000000     0.069100000000    -0.0797378  
C        C      0.587200000000     0.494100000000     0.127700000000    -0.0797378  
C        C      0.594900000000     0.577800000000     0.146600000000    -0.0797378  
C        C      0.673000000000     0.638200000000     0.108400000000    -0.0797378  
C        C      0.687100000000     0.730200000000     0.126600000000    -0.0797378  
C        C      0.652400000000     0.378500000000     0.048700000000    -0.0797378  
C        C      0.554200000000     0.335600000000     0.467200000000    -0.0797378  
C        C      0.582400000000     0.386800000000     0.515600000000    -0.0797378  
C        C      0.673800000000     0.460900000000     0.485700000000    -0.0797378  
C        C      0.692100000000     0.515300000000     0.533300000000    -0.0797378  
C        C      0.249700000000     0.166800000000     0.518800000000    -0.0797378  
C        C      0.169100000000     0.166400000000     0.466600000000    -0.0797378  
C        C      0.050800000000     0.117200000000     0.482600000000    -0.0797378  
C        C      0.988000000000     0.113500000000     0.428300000000    -0.0797378  
C        C      0.910900000000     0.710000000000     0.416000000000    -0.0797378  
C        C      0.868300000000     0.675900000000     0.371300000000    -0.0797378  
C        C      0.920800000000     0.572000000000     0.367600000000    -0.0797378  
C        C      0.013800000000     0.507100000000     0.404700000000    -0.0797378  
C        C      0.054400000000     0.546600000000     0.448400000000    -0.0797378  
C        C      0.162700000000     0.480000000000     0.489800000000    -0.0797378  
C        C      0.768700000000     0.747900000000     0.328100000000    -0.0797378  
C        C      0.833600000000     0.136200000000     0.100400000000    -0.0797378  
C        C      0.919700000000     0.208200000000     0.106400000000    -0.0797378  
C        C      0.010900000000     0.163100000000     0.159900000000    -0.0797378  
C        C      0.098200000000     0.234800000000     0.164400000000    -0.0797378  
C        C      0.522000000000     0.223500000000     0.975900000000    -0.0797378  
C        C      0.375100000000     0.304200000000     0.995000000000    -0.0797378  
C        C      0.250500000000     0.308800000000     0.963800000000    -0.0797378  
C        C      0.103100000000     0.390800000000     0.981400000000    -0.0797378  
C        C      0.085400000000     0.565700000000     0.811700000000    -0.0797378  
C        C      0.027000000000     0.667400000000     0.818200000000    -0.0797378  
C        C      0.046200000000     0.741200000000     0.769400000000    -0.0797378  
C        C      0.114700000000     0.709800000000     0.714000000000    -0.0797378  
C        C      0.182400000000     0.607600000000     0.710200000000    -0.0797378  
C        C      0.273000000000     0.568600000000     0.654000000000    -0.0797378  
C        C      0.951100000000     0.698300000000     0.880300000000    -0.0797378  
C        C      0.102500000000     0.387100000000     0.687100000000    -0.0797378  
C        C      0.041600000000     0.299000000000     0.695000000000    -0.0797378  
C        C      0.917200000000     0.328600000000     0.653600000000    -0.0797378  
C        C      0.844400000000     0.246200000000     0.660800000000    -0.0797378  
C        C      0.455800000000     0.348600000000     0.785800000000    -0.0797378  
C        C      0.534900000000     0.428100000000     0.775100000000    -0.0797378  
C        C      0.648900000000     0.404400000000     0.817200000000    -0.0797378  
C        C      0.736400000000     0.478400000000     0.807600000000    -0.0797378  
C        C      0.696700000000     0.036000000000     0.532200000000    -0.0797378  
C        C      0.799500000000     0.971300000000     0.569100000000    -0.0797378  
C        C      0.791000000000     0.994100000000     0.627700000000    -0.0797378  
C        C      0.680700000000     0.077800000000     0.646600000000    -0.0797378  
C        C      0.580400000000     0.138200000000     0.608400000000    -0.0797378  
C        C      0.456100000000     0.230200000000     0.626600000000    -0.0797378  
C        C      0.920400000000     0.878500000000     0.548700000000    -0.0797378  
C        C      0.643000000000     0.835600000000     0.967200000000    -0.0797378  
C        C      0.515200000000     0.886800000000     0.015600000000    -0.0797378  
C        C      0.379600000000     0.960900000000     0.985700000000    -0.0797378  
C        C      0.259300000000     0.015300000000     0.033300000000    -0.0797378  
C        C      0.064700000000     0.666800000000     0.018800000000    -0.0797378  
C        C      0.197900000000     0.666400000000     0.966600000000    -0.0797378  
C        C      0.349400000000     0.617200000000     0.982600000000    -0.0797378  
C        C      0.470200000000     0.613500000000     0.928300000000    -0.0797378  
C        C      0.963100000000     0.210000000000     0.916000000000    -0.0797378  
C        C      0.084500000000     0.175900000000     0.871300000000    -0.0797378  
C        C      0.139600000000     0.072000000000     0.867600000000    -0.0797378  
C        C      0.074400000000     0.007100000000     0.904700000000    -0.0797378  
C        C      0.950600000000     0.046600000000     0.948400000000    -0.0797378  
C        C      0.867500000000     0.980000000000     0.989800000000    -0.0797378  
C        C      0.155300000000     0.247900000000     0.828100000000    -0.0797378  
C        C      0.929800000000     0.636200000000     0.600400000000    -0.0797378  
C        C      0.765700000000     0.708200000000     0.606400000000    -0.0797378  
C        C      0.666100000000     0.663100000000     0.659900000000    -0.0797378  
C        C      0.502600000000     0.734800000000     0.664400000000    -0.0797378  
C        C      0.278600000000     0.723500000000     0.475900000000    -0.0797378  
C        C      0.325700000000     0.804200000000     0.495000000000    -0.0797378  
C        C      0.476900000000     0.808800000000     0.463800000000    -0.0797378  
C        C      0.524700000000     0.890800000000     0.481400000000    -0.0797378  
N        N      0.540800000000     0.036400000000     0.258400000000    -0.185092   
N        N      0.741200000000     0.619100000000     0.052300000000    -0.185092   
N        N      0.008100000000     0.646400000000     0.452000000000    -0.185092   
N        N      0.164400000000     0.536400000000     0.758400000000    -0.185092   
N        N      0.587400000000     0.119100000000     0.552300000000    -0.185092   
N        N      0.893500000000     0.146400000000     0.952000000000    -0.185092   
O        O      0.512400000000     0.976900000000     0.157900000000    -0.364452   
O        O      0.502100000000     0.131900000000     0.104300000000    -0.364452   
O        O      0.380500000000     0.282700000000     0.390900000000    -0.364452   
O        O      0.541000000000     0.137400000000     0.421000000000    -0.364452   
O        O      0.770400000000     0.776200000000     0.091600000000    -0.364452   
O        O      0.617200000000     0.751100000000     0.179700000000    -0.364452   
O        O      0.570100000000     0.331000000000     0.082400000000    -0.364452   
O        O      0.736900000000     0.345900000000     0.001500000000    -0.364452   
O        O      0.206800000000     0.521200000000     0.523600000000    -0.364452   
O        O      0.202300000000     0.385700000000     0.487900000000    -0.364452   
O        O      0.733900000000     0.711600000000     0.288800000000    -0.364452   
O        O      0.721000000000     0.842500000000     0.330700000000    -0.364452   
O        O      0.352800000000     0.476900000000     0.657900000000    -0.364452   
O        O      0.261700000000     0.631900000000     0.604300000000    -0.364452   
O        O      0.945900000000     0.782700000000     0.890900000000    -0.364452   
O        O      0.900600000000     0.637400000000     0.921000000000    -0.364452   
O        O      0.361800000000     0.276200000000     0.591600000000    -0.364452   
O        O      0.452000000000     0.251100000000     0.679700000000    -0.364452   
O        O      0.016500000000     0.831000000000     0.582400000000    -0.364452   
O        O      0.915700000000     0.845900000000     0.501500000000    -0.364452   
O        O      0.748400000000     0.021200000000     0.023600000000    -0.364452   
O        O      0.924100000000     0.885700000000     0.987900000000    -0.364452   
O        O      0.265700000000     0.211600000000     0.788800000000    -0.364452   
O        O      0.105800000000     0.342500000000     0.830700000000    -0.364452   


