data_FUDQIF_original

_audit_creation_method RASPA-1.0
_audit_creation_date 2022-1-30
_audit_author_name 'Felipe Lopes de Oliveira <felipe.lopes.oliveira@ibm.com>'

_cell_length_a    7.1409
_cell_length_b    7.1409
_cell_length_c    7.6068
_cell_angle_alpha 90
_cell_angle_beta  90
_cell_angle_gamma 90
_cell_volume      387.889

_symmetry_cell_setting          triclinic
_symmetry_space_group_name_Hall 'P 1'
_symmetry_space_group_name_H-M  'P 1'
_symmetry_Int_Tables_number     1

_symmetry_equiv_pos_as_xyz 'x,y,z'

loop_
_atom_site_label
_atom_site_type_symbol
_atom_site_fract_x
_atom_site_fract_y
_atom_site_fract_z
_atom_site_charge
Zn       Zn     0.500000000000     0.500000000000     0.500000000000     0.604378   
Si       Si     0.500000000000     0.500000000000     0.000000000000     3.23999    
H        H      0.500000000000     0.838600000000     0.751500000000     0.113109   
H        H      0.500000000000     0.161400000000     0.751500000000     0.113109   
H        H      0.161400000000     0.500000000000     0.751500000000     0.113109   
H        H      0.838600000000     0.500000000000     0.751500000000     0.113109   
H        H      0.500000000000     0.838600000000     0.248500000000     0.113109   
H        H      0.500000000000     0.161400000000     0.248500000000     0.113109   
H        H      0.838600000000     0.500000000000     0.248500000000     0.113109   
H        H      0.161400000000     0.500000000000     0.248500000000     0.113109   
C        C      0.500000000000     0.901400000000     0.644500000000     0.0428588  
C        C      0.500000000000     0.098600000000     0.644500000000     0.0428588  
C        C      0.098600000000     0.500000000000     0.644500000000     0.0428588  
C        C      0.901400000000     0.500000000000     0.644500000000     0.0428588  
C        C      0.500000000000     0.901400000000     0.355500000000     0.0428588  
C        C      0.500000000000     0.098600000000     0.355500000000     0.0428588  
C        C      0.901400000000     0.500000000000     0.355500000000     0.0428588  
C        C      0.098600000000     0.500000000000     0.355500000000     0.0428588  
N        N      0.500000000000     0.804200000000     0.500000000000    -0.11535    
N        N      0.500000000000     0.195800000000     0.500000000000    -0.11535    
N        N      0.195800000000     0.500000000000     0.500000000000    -0.11535    
N        N      0.804200000000     0.500000000000     0.500000000000    -0.11535    
F        F      0.500000000000     0.500000000000     0.770400000000    -0.771784   
F        F      0.500000000000     0.500000000000     0.229600000000    -0.771784   
F        F      0.664100000000     0.664100000000     0.000000000000    -0.771784   
F        F      0.335900000000     0.335900000000     0.000000000000    -0.771784   
F        F      0.335900000000     0.664100000000     0.000000000000    -0.771784   
F        F      0.664100000000     0.335900000000     0.000000000000    -0.771784   


