data_FUFREE_original

_audit_creation_method RASPA-1.0
_audit_creation_date 2022-1-30
_audit_author_name 'Felipe Lopes de Oliveira <felipe.lopes.oliveira@ibm.com>'

_cell_length_a    7.785
_cell_length_b    10.238
_cell_length_c    15.851
_cell_angle_alpha 90
_cell_angle_beta  90
_cell_angle_gamma 90
_cell_volume      1263.37

_symmetry_cell_setting          triclinic
_symmetry_space_group_name_Hall 'P 1'
_symmetry_space_group_name_H-M  'P 1'
_symmetry_Int_Tables_number     1

_symmetry_equiv_pos_as_xyz 'x,y,z'

loop_
_atom_site_label
_atom_site_type_symbol
_atom_site_fract_x
_atom_site_fract_y
_atom_site_fract_z
_atom_site_charge
Fe       Fe     0.638120000000     0.529830000000     0.901660000000     0.74004    
Fe       Fe     0.361880000000     0.470170000000     0.401660000000     0.74004    
Fe       Fe     0.138120000000     0.970170000000     0.901660000000     0.74004    
Fe       Fe     0.861880000000     0.029830000000     0.401660000000     0.74004    
H        H      0.586000000000     0.949300000000     0.710700000000     0.0658434  
H        H      0.450800000000     0.411200000000     0.586400000000     0.0658434  
H        H      0.342400000000     0.751600000000     0.485400000000     0.0658434  
H        H      0.444300000000     0.859900000000     0.602700000000     0.0658434  
H        H      0.563400000000     0.509100000000     0.704500000000     0.0658434  
H        H      0.414000000000     0.050700000000     0.210700000000     0.0658434  
H        H      0.549200000000     0.588800000000     0.086400000000     0.0658434  
H        H      0.657600000000     0.248400000000     0.985400000000     0.0658434  
H        H      0.555700000000     0.140100000000     0.102700000000     0.0658434  
H        H      0.436600000000     0.490900000000     0.204500000000     0.0658434  
H        H      0.086000000000     0.550700000000     0.710700000000     0.0658434  
H        H      0.950800000000     0.088800000000     0.586400000000     0.0658434  
H        H      0.842400000000     0.748400000000     0.485400000000     0.0658434  
H        H      0.944300000000     0.640100000000     0.602700000000     0.0658434  
H        H      0.063400000000     0.990900000000     0.704500000000     0.0658434  
H        H      0.914000000000     0.449300000000     0.210700000000     0.0658434  
H        H      0.049200000000     0.911200000000     0.086400000000     0.0658434  
H        H      0.157600000000     0.251600000000     0.985400000000     0.0658434  
H        H      0.055700000000     0.359900000000     0.102700000000     0.0658434  
H        H      0.936600000000     0.009100000000     0.204500000000     0.0658434  
C        C      0.453000000000     0.503900000000     0.589130000000     0.0705011  
C        C      0.388900000000     0.701900000000     0.530560000000     0.0705011  
C        C      0.450400000000     0.767400000000     0.599960000000     0.0705011  
C        C      0.519300000000     0.561300000000     0.659910000000     0.0705011  
C        C      0.521500000000     0.696700000000     0.666000000000     0.0705011  
C        C      0.605400000000     0.759100000000     0.738150000000     0.0705011  
C        C      0.732400000000     0.913000000000     0.812530000000     0.0705011  
C        C      0.765000000000     0.791200000000     0.846980000000     0.0705011  
C        C      0.780800000000     0.050200000000     0.835470000000     0.0705011  
C        C      0.866800000000     0.751100000000     0.921640000000     0.0705011  
C        C      0.547000000000     0.496100000000     0.089130000000     0.0705011  
C        C      0.611100000000     0.298100000000     0.030560000000     0.0705011  
C        C      0.549600000000     0.232600000000     0.099960000000     0.0705011  
C        C      0.480700000000     0.438700000000     0.159910000000     0.0705011  
C        C      0.478500000000     0.303300000000     0.166000000000     0.0705011  
C        C      0.394600000000     0.240900000000     0.238150000000     0.0705011  
C        C      0.267600000000     0.087000000000     0.312530000000     0.0705011  
C        C      0.235000000000     0.208800000000     0.346980000000     0.0705011  
C        C      0.219200000000     0.949800000000     0.335470000000     0.0705011  
C        C      0.133200000000     0.248900000000     0.421640000000     0.0705011  
C        C      0.953000000000     0.996100000000     0.589130000000     0.0705011  
C        C      0.888900000000     0.798100000000     0.530560000000     0.0705011  
C        C      0.950400000000     0.732600000000     0.599960000000     0.0705011  
C        C      0.019300000000     0.938700000000     0.659910000000     0.0705011  
C        C      0.021500000000     0.803300000000     0.666000000000     0.0705011  
C        C      0.105400000000     0.740900000000     0.738150000000     0.0705011  
C        C      0.232400000000     0.587000000000     0.812530000000     0.0705011  
C        C      0.265000000000     0.708800000000     0.846980000000     0.0705011  
C        C      0.280800000000     0.449800000000     0.835470000000     0.0705011  
C        C      0.366800000000     0.748900000000     0.921640000000     0.0705011  
C        C      0.047000000000     0.003900000000     0.089130000000     0.0705011  
C        C      0.111100000000     0.201900000000     0.030560000000     0.0705011  
C        C      0.049600000000     0.267400000000     0.099960000000     0.0705011  
C        C      0.980700000000     0.061300000000     0.159910000000     0.0705011  
C        C      0.978500000000     0.196700000000     0.166000000000     0.0705011  
C        C      0.894600000000     0.259100000000     0.238150000000     0.0705011  
C        C      0.767600000000     0.413000000000     0.312530000000     0.0705011  
C        C      0.735000000000     0.291200000000     0.346980000000     0.0705011  
C        C      0.719200000000     0.550200000000     0.335470000000     0.0705011  
C        C      0.633200000000     0.251100000000     0.421640000000     0.0705011  
N        N      0.391000000000     0.571800000000     0.523280000000    -0.178209   
N        N      0.629400000000     0.889680000000     0.744550000000    -0.178209   
N        N      0.682200000000     0.696040000000     0.800500000000    -0.178209   
N        N      0.609000000000     0.428200000000     0.023280000000    -0.178209   
N        N      0.370600000000     0.110320000000     0.244550000000    -0.178209   
N        N      0.317800000000     0.303960000000     0.300500000000    -0.178209   
N        N      0.891000000000     0.928200000000     0.523280000000    -0.178209   
N        N      0.129400000000     0.610320000000     0.744550000000    -0.178209   
N        N      0.182200000000     0.803960000000     0.800500000000    -0.178209   
N        N      0.109000000000     0.071800000000     0.023280000000    -0.178209   
N        N      0.870600000000     0.389680000000     0.244550000000    -0.178209   
N        N      0.817800000000     0.196040000000     0.300500000000    -0.178209   
O        O      0.665200000000     0.133320000000     0.828980000000    -0.30991    
O        O      0.932200000000     0.074570000000     0.856730000000    -0.30991    
O        O      0.970500000000     0.828710000000     0.954120000000    -0.30991    
O        O      0.844800000000     0.635180000000     0.947650000000    -0.30991    
O        O      0.334800000000     0.866680000000     0.328980000000    -0.30991    
O        O      0.067800000000     0.925430000000     0.356730000000    -0.30991    
O        O      0.029500000000     0.171290000000     0.454120000000    -0.30991    
O        O      0.155200000000     0.364820000000     0.447650000000    -0.30991    
O        O      0.165200000000     0.366680000000     0.828980000000    -0.30991    
O        O      0.432200000000     0.425430000000     0.856730000000    -0.30991    
O        O      0.470500000000     0.671290000000     0.954120000000    -0.30991    
O        O      0.344800000000     0.864820000000     0.947650000000    -0.30991    
O        O      0.834800000000     0.633320000000     0.328980000000    -0.30991    
O        O      0.567800000000     0.574570000000     0.356730000000    -0.30991    
O        O      0.529500000000     0.328710000000     0.454120000000    -0.30991    
O        O      0.655200000000     0.135180000000     0.447650000000    -0.30991    


