data_FUNBOG_original

_audit_creation_method RASPA-1.0
_audit_creation_date 2022-1-31
_audit_author_name 'Felipe Lopes de Oliveira <felipe.lopes.oliveira@ibm.com>'

_cell_length_a    11.711
_cell_length_b    15.6181
_cell_length_c    16.0362
_cell_angle_alpha 90
_cell_angle_beta  90.205
_cell_angle_gamma 90
_cell_volume      2933.06

_symmetry_cell_setting          triclinic
_symmetry_space_group_name_Hall 'P 1'
_symmetry_space_group_name_H-M  'P 1'
_symmetry_Int_Tables_number     1

_symmetry_equiv_pos_as_xyz 'x,y,z'

loop_
_atom_site_label
_atom_site_type_symbol
_atom_site_fract_x
_atom_site_fract_y
_atom_site_fract_z
_atom_site_charge
Zn       Zn     0.499960000000     0.500000000000     0.591850000000     0.479277   
Zn       Zn     0.500040000000     0.500000000000     0.408150000000     0.479277   
H        H      0.140900000000     0.827800000000     0.376000000000     0.0615481  
H        H      0.248400000000     0.703600000000     0.624200000000     0.0615481  
H        H      0.247800000000     0.703700000000     0.374400000000     0.0615481  
H        H      0.138600000000     0.827400000000     0.625000000000     0.0615481  
H        H      0.859100000000     0.827800000000     0.624000000000     0.0615481  
H        H      0.751600000000     0.703600000000     0.375800000000     0.0615481  
H        H      0.752200000000     0.703700000000     0.625600000000     0.0615481  
H        H      0.861400000000     0.827400000000     0.375000000000     0.0615481  
H        H      0.859100000000     0.172200000000     0.624000000000     0.0615481  
H        H      0.751600000000     0.296400000000     0.375800000000     0.0615481  
H        H      0.752200000000     0.296300000000     0.625600000000     0.0615481  
H        H      0.861400000000     0.172600000000     0.375000000000     0.0615481  
H        H      0.140900000000     0.172200000000     0.376000000000     0.0615481  
H        H      0.248400000000     0.296400000000     0.624200000000     0.0615481  
H        H      0.247800000000     0.296300000000     0.374400000000     0.0615481  
H        H      0.138600000000     0.172600000000     0.625000000000     0.0615481  
H        H      0.665200000000     0.500000000000     0.723200000000     0.0615481  
H        H      0.337500000000     0.500000000000     0.744300000000     0.0615481  
H        H      0.353100000000     0.500000000000     0.888400000000     0.0615481  
H        H      0.690800000000     0.500000000000     0.860600000000     0.0615481  
H        H      0.334800000000     0.500000000000     0.276800000000     0.0615481  
H        H      0.662500000000     0.500000000000     0.255700000000     0.0615481  
H        H      0.646900000000     0.500000000000     0.111600000000     0.0615481  
H        H      0.309200000000     0.500000000000     0.139400000000     0.0615481  
C        C      0.264900000000     0.693000000000     0.500700000000     0.0191074  
C        C      0.061400000000     0.921300000000     0.500600000000     0.0191074  
C        C      0.161700000000     0.802400000000     0.426300000000     0.0191074  
C        C      0.227900000000     0.728900000000     0.573900000000     0.0191074  
C        C      0.228000000000     0.728900000000     0.424800000000     0.0191074  
C        C      0.125800000000     0.839100000000     0.500100000000     0.0191074  
C        C      0.345900000000     0.618300000000     0.500700000000     0.0191074  
C        C      0.160200000000     0.802900000000     0.574600000000     0.0191074  
C        C      0.735100000000     0.693000000000     0.499300000000     0.0191074  
C        C      0.938600000000     0.921300000000     0.499400000000     0.0191074  
C        C      0.838300000000     0.802400000000     0.573700000000     0.0191074  
C        C      0.772100000000     0.728900000000     0.426100000000     0.0191074  
C        C      0.772000000000     0.728900000000     0.575200000000     0.0191074  
C        C      0.874200000000     0.839100000000     0.499900000000     0.0191074  
C        C      0.654100000000     0.618300000000     0.499300000000     0.0191074  
C        C      0.839800000000     0.802900000000     0.425400000000     0.0191074  
C        C      0.735100000000     0.307000000000     0.499300000000     0.0191074  
C        C      0.938600000000     0.078700000000     0.499400000000     0.0191074  
C        C      0.838300000000     0.197600000000     0.573700000000     0.0191074  
C        C      0.772100000000     0.271100000000     0.426100000000     0.0191074  
C        C      0.772000000000     0.271100000000     0.575200000000     0.0191074  
C        C      0.874200000000     0.160900000000     0.499900000000     0.0191074  
C        C      0.654100000000     0.381700000000     0.499300000000     0.0191074  
C        C      0.839800000000     0.197100000000     0.425400000000     0.0191074  
C        C      0.264900000000     0.307000000000     0.500700000000     0.0191074  
C        C      0.061400000000     0.078700000000     0.500600000000     0.0191074  
C        C      0.161700000000     0.197600000000     0.426300000000     0.0191074  
C        C      0.227900000000     0.271100000000     0.573900000000     0.0191074  
C        C      0.228000000000     0.271100000000     0.424800000000     0.0191074  
C        C      0.125800000000     0.160900000000     0.500100000000     0.0191074  
C        C      0.345900000000     0.381700000000     0.500700000000     0.0191074  
C        C      0.160200000000     0.197100000000     0.574600000000     0.0191074  
C        C      0.600200000000     0.500000000000     0.756300000000     0.0191074  
C        C      0.410100000000     0.500000000000     0.768000000000     0.0191074  
C        C      0.418800000000     0.500000000000     0.856000000000     0.0191074  
C        C      0.524700000000     0.500000000000     0.893700000000     0.0191074  
C        C      0.616800000000     0.500000000000     0.839400000000     0.0191074  
C        C      0.399800000000     0.500000000000     0.243700000000     0.0191074  
C        C      0.589900000000     0.500000000000     0.232000000000     0.0191074  
C        C      0.581200000000     0.500000000000     0.144000000000     0.0191074  
C        C      0.475300000000     0.500000000000     0.106300000000     0.0191074  
C        C      0.383200000000     0.500000000000     0.160600000000     0.0191074  
C        C      0.103400000000     0.000000000000     0.503300000000     0.0191074  
C        C      0.896600000000     0.000000000000     0.496700000000     0.0191074  
Br       Br     0.279250000000     0.000000000000     0.500220000000    -0.216298   
Br       Br     0.720750000000     0.000000000000     0.499780000000    -0.216298   
N        N      0.500200000000     0.500000000000     0.716900000000    -0.14074    
N        N      0.546700000000     0.500000000000     0.982100000000    -0.14074    
N        N      0.499800000000     0.500000000000     0.283100000000    -0.14074    
N        N      0.453300000000     0.500000000000     0.017900000000    -0.14074    
O        O      0.382300000000     0.591300000000     0.430000000000    -0.28511    
O        O      0.380500000000     0.590300000000     0.570100000000    -0.28511    
O        O      0.617700000000     0.591300000000     0.570000000000    -0.28511    
O        O      0.619500000000     0.590300000000     0.429900000000    -0.28511    
O        O      0.617700000000     0.408700000000     0.570000000000    -0.28511    
O        O      0.619500000000     0.409700000000     0.429900000000    -0.28511    
O        O      0.382300000000     0.408700000000     0.430000000000    -0.28511    
O        O      0.380500000000     0.409700000000     0.570100000000    -0.28511    


