data_FUNBIA_original

_audit_creation_method RASPA-1.0
_audit_creation_date 2022-1-29
_audit_author_name 'Felipe Lopes de Oliveira <felipe.lopes.oliveira@ibm.com>'

_cell_length_a    11.6268
_cell_length_b    15.654
_cell_length_c    15.9467
_cell_angle_alpha 90
_cell_angle_beta  90
_cell_angle_gamma 90
_cell_volume      2902.39

_symmetry_cell_setting          triclinic
_symmetry_space_group_name_Hall 'P 1'
_symmetry_space_group_name_H-M  'P 1'
_symmetry_Int_Tables_number     1

_symmetry_equiv_pos_as_xyz 'x,y,z'

loop_
_atom_site_label
_atom_site_type_symbol
_atom_site_fract_x
_atom_site_fract_y
_atom_site_fract_z
_atom_site_charge
Zn       Zn     0.141970000000     0.000000000000     0.579760000000     0.460034   
Zn       Zn     0.142970000000     0.000000000000     0.761910000000     0.460034   
Zn       Zn     0.641970000000     0.000000000000     0.420240000000     0.460034   
Zn       Zn     0.642970000000     0.000000000000     0.238090000000     0.460034   
H        H      0.307100000000     0.749000000000     0.568800000000     0.0584295  
H        H      0.583100000000     0.721800000000     0.780200000000     0.0584295  
H        H      0.454800000000     0.833600000000     0.777200000000     0.0584295  
H        H      0.856400000000     0.639500000000     0.793000000000     0.0584295  
H        H      0.983400000000     0.750900000000     0.781700000000     0.0584295  
H        H      0.425500000000     0.631300000000     0.569300000000     0.0584295  
H        H      0.832600000000     0.821100000000     0.564200000000     0.0584295  
H        H      0.709400000000     0.704900000000     0.572800000000     0.0584295  
H        H      0.307100000000     0.251000000000     0.568800000000     0.0584295  
H        H      0.583100000000     0.278200000000     0.780200000000     0.0584295  
H        H      0.454800000000     0.166400000000     0.777200000000     0.0584295  
H        H      0.856400000000     0.360500000000     0.793000000000     0.0584295  
H        H      0.983400000000     0.249100000000     0.781700000000     0.0584295  
H        H      0.425500000000     0.368700000000     0.569300000000     0.0584295  
H        H      0.832600000000     0.178900000000     0.564200000000     0.0584295  
H        H      0.709400000000     0.295100000000     0.572800000000     0.0584295  
H        H      0.320000000000     0.000000000000     0.300200000000     0.0584295  
H        H      0.974300000000     0.000000000000     0.435600000000     0.0584295  
H        H      0.309900000000     0.000000000000     0.441800000000     0.0584295  
H        H      0.977900000000     0.000000000000     0.289700000000     0.0584295  
H        H      0.927800000000     0.000000000000     0.028100000000     0.0584295  
H        H      0.962100000000     0.000000000000     0.887800000000     0.0584295  
H        H      0.288100000000     0.000000000000     0.917400000000     0.0584295  
H        H      0.272700000000     0.000000000000     0.061200000000     0.0584295  
H        H      0.841800000000     0.500000000000     0.673100000000     0.0584295  
H        H      0.449100000000     0.500000000000     0.698700000000     0.0584295  
H        H      0.807100000000     0.251000000000     0.431200000000     0.0584295  
H        H      0.083100000000     0.278200000000     0.219800000000     0.0584295  
H        H      0.954800000000     0.166400000000     0.222800000000     0.0584295  
H        H      0.356400000000     0.360500000000     0.207000000000     0.0584295  
H        H      0.483400000000     0.249100000000     0.218300000000     0.0584295  
H        H      0.925500000000     0.368700000000     0.430700000000     0.0584295  
H        H      0.332600000000     0.178900000000     0.435800000000     0.0584295  
H        H      0.209400000000     0.295100000000     0.427200000000     0.0584295  
H        H      0.807100000000     0.749000000000     0.431200000000     0.0584295  
H        H      0.083100000000     0.721800000000     0.219800000000     0.0584295  
H        H      0.954800000000     0.833600000000     0.222800000000     0.0584295  
H        H      0.356400000000     0.639500000000     0.207000000000     0.0584295  
H        H      0.483400000000     0.750900000000     0.218300000000     0.0584295  
H        H      0.925500000000     0.631300000000     0.430700000000     0.0584295  
H        H      0.332600000000     0.821100000000     0.435800000000     0.0584295  
H        H      0.209400000000     0.704900000000     0.427200000000     0.0584295  
H        H      0.820000000000     0.000000000000     0.699800000000     0.0584295  
H        H      0.474300000000     0.000000000000     0.564400000000     0.0584295  
H        H      0.809900000000     0.000000000000     0.558200000000     0.0584295  
H        H      0.477900000000     0.000000000000     0.710300000000     0.0584295  
H        H      0.427800000000     0.000000000000     0.971900000000     0.0584295  
H        H      0.462100000000     0.000000000000     0.112200000000     0.0584295  
H        H      0.788100000000     0.000000000000     0.082600000000     0.0584295  
H        H      0.772700000000     0.000000000000     0.938800000000     0.0584295  
H        H      0.341800000000     0.500000000000     0.326900000000     0.0584295  
H        H      0.949100000000     0.500000000000     0.301300000000     0.0584295  
C        C      0.916400000000     0.805000000000     0.672900000000     0.00960245 
C        C      0.991400000000     0.878600000000     0.675900000000     0.00960245 
C        C      0.373200000000     0.801800000000     0.674400000000     0.00960245 
C        C      0.292900000000     0.881200000000     0.667300000000     0.00960245 
C        C      0.515300000000     0.655900000000     0.677100000000     0.00960245 
C        C      0.775600000000     0.662100000000     0.682300000000     0.00960245 
C        C      0.708400000000     0.579500000000     0.680300000000     0.00960245 
C        C      0.589900000000     0.577900000000     0.685100000000     0.00960245 
C        C      0.361300000000     0.741800000000     0.611000000000     0.00960245 
C        C      0.526500000000     0.724200000000     0.739100000000     0.00960245 
C        C      0.451100000000     0.792300000000     0.735400000000     0.00960245 
C        C      0.853900000000     0.675900000000     0.746900000000     0.00960245 
C        C      0.926500000000     0.743600000000     0.741300000000     0.00960245 
C        C      0.432000000000     0.671100000000     0.612300000000     0.00960245 
C        C      0.837000000000     0.785500000000     0.610700000000     0.00960245 
C        C      0.763700000000     0.715300000000     0.614300000000     0.00960245 
C        C      0.916400000000     0.195000000000     0.672900000000     0.00960245 
C        C      0.991400000000     0.121400000000     0.675900000000     0.00960245 
C        C      0.373200000000     0.198200000000     0.674400000000     0.00960245 
C        C      0.292900000000     0.118800000000     0.667300000000     0.00960245 
C        C      0.515300000000     0.344100000000     0.677100000000     0.00960245 
C        C      0.775600000000     0.337900000000     0.682300000000     0.00960245 
C        C      0.708400000000     0.420500000000     0.680300000000     0.00960245 
C        C      0.589900000000     0.422100000000     0.685100000000     0.00960245 
C        C      0.361300000000     0.258200000000     0.611000000000     0.00960245 
C        C      0.526500000000     0.275800000000     0.739100000000     0.00960245 
C        C      0.451100000000     0.207700000000     0.735400000000     0.00960245 
C        C      0.853900000000     0.324100000000     0.746900000000     0.00960245 
C        C      0.926500000000     0.256400000000     0.741300000000     0.00960245 
C        C      0.432000000000     0.328900000000     0.612300000000     0.00960245 
C        C      0.837000000000     0.214500000000     0.610700000000     0.00960245 
C        C      0.763700000000     0.284700000000     0.614300000000     0.00960245 
C        C      0.098700000000     0.000000000000     0.059500000000     0.00960245 
C        C      0.248600000000     0.000000000000     0.326500000000     0.00960245 
C        C      0.044700000000     0.000000000000     0.407800000000     0.00960245 
C        C      0.241800000000     0.000000000000     0.411200000000     0.00960245 
C        C      0.148400000000     0.000000000000     0.278900000000     0.00960245 
C        C      0.046500000000     0.000000000000     0.319800000000     0.00960245 
C        C      0.002500000000     0.000000000000     0.007300000000     0.00960245 
C        C      0.025600000000     0.000000000000     0.923200000000     0.00960245 
C        C      0.214500000000     0.000000000000     0.940300000000     0.00960245 
C        C      0.207600000000     0.000000000000     0.027300000000     0.00960245 
C        C      0.762100000000     0.500000000000     0.677400000000     0.00960245 
C        C      0.528400000000     0.500000000000     0.691000000000     0.00960245 
C        C      0.416400000000     0.195000000000     0.327100000000     0.00960245 
C        C      0.491400000000     0.121400000000     0.324100000000     0.00960245 
C        C      0.873200000000     0.198200000000     0.325600000000     0.00960245 
C        C      0.792900000000     0.118800000000     0.332700000000     0.00960245 
C        C      0.015300000000     0.344100000000     0.322900000000     0.00960245 
C        C      0.275600000000     0.337900000000     0.317700000000     0.00960245 
C        C      0.208400000000     0.420500000000     0.319700000000     0.00960245 
C        C      0.089900000000     0.422100000000     0.314900000000     0.00960245 
C        C      0.861300000000     0.258200000000     0.389000000000     0.00960245 
C        C      0.026500000000     0.275800000000     0.260900000000     0.00960245 
C        C      0.951100000000     0.207700000000     0.264600000000     0.00960245 
C        C      0.353900000000     0.324100000000     0.253100000000     0.00960245 
C        C      0.426500000000     0.256400000000     0.258700000000     0.00960245 
C        C      0.932000000000     0.328900000000     0.387700000000     0.00960245 
C        C      0.337000000000     0.214500000000     0.389300000000     0.00960245 
C        C      0.263700000000     0.284700000000     0.385700000000     0.00960245 
C        C      0.416400000000     0.805000000000     0.327100000000     0.00960245 
C        C      0.491400000000     0.878600000000     0.324100000000     0.00960245 
C        C      0.873200000000     0.801800000000     0.325600000000     0.00960245 
C        C      0.792900000000     0.881200000000     0.332700000000     0.00960245 
C        C      0.015300000000     0.655900000000     0.322900000000     0.00960245 
C        C      0.275600000000     0.662100000000     0.317700000000     0.00960245 
C        C      0.208400000000     0.579500000000     0.319700000000     0.00960245 
C        C      0.089900000000     0.577900000000     0.314900000000     0.00960245 
C        C      0.861300000000     0.741800000000     0.389000000000     0.00960245 
C        C      0.026500000000     0.724200000000     0.260900000000     0.00960245 
C        C      0.951100000000     0.792300000000     0.264600000000     0.00960245 
C        C      0.353900000000     0.675900000000     0.253100000000     0.00960245 
C        C      0.426500000000     0.743600000000     0.258700000000     0.00960245 
C        C      0.932000000000     0.671100000000     0.387700000000     0.00960245 
C        C      0.337000000000     0.785500000000     0.389300000000     0.00960245 
C        C      0.263700000000     0.715300000000     0.385700000000     0.00960245 
C        C      0.598700000000     0.000000000000     0.940500000000     0.00960245 
C        C      0.748600000000     0.000000000000     0.673500000000     0.00960245 
C        C      0.544700000000     0.000000000000     0.592200000000     0.00960245 
C        C      0.741800000000     0.000000000000     0.588800000000     0.00960245 
C        C      0.648400000000     0.000000000000     0.721100000000     0.00960245 
C        C      0.546500000000     0.000000000000     0.680200000000     0.00960245 
C        C      0.502500000000     0.000000000000     0.992700000000     0.00960245 
C        C      0.525600000000     0.000000000000     0.076800000000     0.00960245 
C        C      0.714500000000     0.000000000000     0.059700000000     0.00960245 
C        C      0.707600000000     0.000000000000     0.972700000000     0.00960245 
C        C      0.262100000000     0.500000000000     0.322600000000     0.00960245 
C        C      0.028400000000     0.500000000000     0.309000000000     0.00960245 
N        N      0.142600000000     0.000000000000     0.453000000000    -0.141249   
N        N      0.166200000000     0.000000000000     0.189100000000    -0.141249   
N        N      0.127300000000     0.000000000000     0.886000000000    -0.141249   
N        N      0.078300000000     0.000000000000     0.148800000000    -0.141249   
N        N      0.642600000000     0.000000000000     0.547000000000    -0.141249   
N        N      0.666200000000     0.000000000000     0.810900000000    -0.141249   
N        N      0.627300000000     0.000000000000     0.114000000000    -0.141249   
N        N      0.578300000000     0.000000000000     0.851200000000    -0.141249   
O        O      0.249200000000     0.900600000000     0.603700000000    -0.287093   
O        O      0.005300000000     0.917000000000     0.601600000000    -0.287093   
O        O      0.241700000000     0.897800000000     0.737600000000    -0.287093   
O        O      0.001700000000     0.921600000000     0.741000000000    -0.287093   
O        O      0.249200000000     0.099400000000     0.603700000000    -0.287093   
O        O      0.005300000000     0.083000000000     0.601600000000    -0.287093   
O        O      0.241700000000     0.102200000000     0.737600000000    -0.287093   
O        O      0.001700000000     0.078400000000     0.741000000000    -0.287093   
O        O      0.749200000000     0.099400000000     0.396300000000    -0.287093   
O        O      0.505300000000     0.083000000000     0.398400000000    -0.287093   
O        O      0.741700000000     0.102200000000     0.262400000000    -0.287093   
O        O      0.501700000000     0.078400000000     0.259000000000    -0.287093   
O        O      0.749200000000     0.900600000000     0.396300000000    -0.287093   
O        O      0.505300000000     0.917000000000     0.398400000000    -0.287093   
O        O      0.741700000000     0.897800000000     0.262400000000    -0.287093   
O        O      0.501700000000     0.921600000000     0.259000000000    -0.287093   


