data_FUNBEW_original

_audit_creation_method RASPA-1.0
_audit_creation_date 2022-1-30
_audit_author_name 'Felipe Lopes de Oliveira <felipe.lopes.oliveira@ibm.com>'

_cell_length_a    11.2038
_cell_length_b    13.975
_cell_length_c    15.848
_cell_angle_alpha 90
_cell_angle_beta  90
_cell_angle_gamma 90
_cell_volume      2481.37

_symmetry_cell_setting          triclinic
_symmetry_space_group_name_Hall 'P 1'
_symmetry_space_group_name_H-M  'P 1'
_symmetry_Int_Tables_number     1

_symmetry_equiv_pos_as_xyz 'x,y,z'

loop_
_atom_site_label
_atom_site_type_symbol
_atom_site_fract_x
_atom_site_fract_y
_atom_site_fract_z
_atom_site_charge
Zn       Zn     0.500000000000     0.896230000000     0.000000000000     0.482827   
Zn       Zn     0.500000000000     0.103770000000     0.000000000000     0.482827   
H        H      0.862000000000     0.856600000000     0.672400000000     0.0543359  
H        H      0.752100000000     0.856400000000     0.796100000000     0.0543359  
H        H      0.138000000000     0.143400000000     0.672400000000     0.0543359  
H        H      0.247900000000     0.143600000000     0.796100000000     0.0543359  
H        H      0.138000000000     0.856600000000     0.327600000000     0.0543359  
H        H      0.247900000000     0.856400000000     0.203900000000     0.0543359  
H        H      0.862000000000     0.143400000000     0.327600000000     0.0543359  
H        H      0.752100000000     0.143600000000     0.203900000000     0.0543359  
H        H      0.138000000000     0.143400000000     0.327600000000     0.0543359  
H        H      0.247900000000     0.143600000000     0.203900000000     0.0543359  
H        H      0.862000000000     0.856600000000     0.327600000000     0.0543359  
H        H      0.752100000000     0.856400000000     0.203900000000     0.0543359  
H        H      0.862000000000     0.143400000000     0.672400000000     0.0543359  
H        H      0.752100000000     0.143600000000     0.796100000000     0.0543359  
H        H      0.138000000000     0.856600000000     0.672400000000     0.0543359  
H        H      0.247900000000     0.856400000000     0.796100000000     0.0543359  
H        H      0.667700000000     0.739300000000     0.000000000000     0.0543359  
H        H      0.677400000000     0.574500000000     0.000000000000     0.0543359  
H        H      0.332300000000     0.260700000000     0.000000000000     0.0543359  
H        H      0.322600000000     0.425500000000     0.000000000000     0.0543359  
H        H      0.332300000000     0.739300000000     0.000000000000     0.0543359  
H        H      0.322600000000     0.574500000000     0.000000000000     0.0543359  
H        H      0.667700000000     0.260700000000     0.000000000000     0.0543359  
H        H      0.677400000000     0.425500000000     0.000000000000     0.0543359  
C        C      0.838200000000     0.915700000000     0.696900000000     0.0220899  
C        C      0.772700000000     0.915500000000     0.770200000000     0.0220899  
C        C      0.161800000000     0.084300000000     0.696900000000     0.0220899  
C        C      0.227300000000     0.084500000000     0.770200000000     0.0220899  
C        C      0.161800000000     0.915700000000     0.303100000000     0.0220899  
C        C      0.227300000000     0.915500000000     0.229800000000     0.0220899  
C        C      0.838200000000     0.084300000000     0.303100000000     0.0220899  
C        C      0.772700000000     0.084500000000     0.229800000000     0.0220899  
C        C      0.161800000000     0.084300000000     0.303100000000     0.0220899  
C        C      0.227300000000     0.084500000000     0.229800000000     0.0220899  
C        C      0.838200000000     0.915700000000     0.303100000000     0.0220899  
C        C      0.772700000000     0.915500000000     0.229800000000     0.0220899  
C        C      0.838200000000     0.084300000000     0.696900000000     0.0220899  
C        C      0.772700000000     0.084500000000     0.770200000000     0.0220899  
C        C      0.161800000000     0.915700000000     0.696900000000     0.0220899  
C        C      0.227300000000     0.915500000000     0.770200000000     0.0220899  
C        C      0.878800000000     0.000000000000     0.500000000000     0.0220899  
C        C      0.121200000000     0.000000000000     0.500000000000     0.0220899  
C        C      0.500000000000     0.550800000000     0.000000000000     0.0220899  
C        C      0.500000000000     0.449200000000     0.000000000000     0.0220899  
C        C      0.939400000000     0.000000000000     0.577300000000     0.0220899  
C        C      0.869900000000     0.000000000000     0.658400000000     0.0220899  
C        C      0.736800000000     0.000000000000     0.806300000000     0.0220899  
C        C      0.655900000000     0.000000000000     0.883100000000     0.0220899  
C        C      0.060600000000     0.000000000000     0.577300000000     0.0220899  
C        C      0.130100000000     0.000000000000     0.658400000000     0.0220899  
C        C      0.263200000000     0.000000000000     0.806300000000     0.0220899  
C        C      0.344100000000     0.000000000000     0.883100000000     0.0220899  
C        C      0.060600000000     0.000000000000     0.422700000000     0.0220899  
C        C      0.130100000000     0.000000000000     0.341600000000     0.0220899  
C        C      0.263200000000     0.000000000000     0.193700000000     0.0220899  
C        C      0.344100000000     0.000000000000     0.116900000000     0.0220899  
C        C      0.939400000000     0.000000000000     0.422700000000     0.0220899  
C        C      0.869900000000     0.000000000000     0.341600000000     0.0220899  
C        C      0.736800000000     0.000000000000     0.193700000000     0.0220899  
C        C      0.655900000000     0.000000000000     0.116900000000     0.0220899  
C        C      0.594400000000     0.705200000000     0.000000000000     0.0220899  
C        C      0.601600000000     0.604900000000     0.000000000000     0.0220899  
C        C      0.405600000000     0.294800000000     0.000000000000     0.0220899  
C        C      0.398400000000     0.395100000000     0.000000000000     0.0220899  
C        C      0.405600000000     0.705200000000     0.000000000000     0.0220899  
C        C      0.398400000000     0.604900000000     0.000000000000     0.0220899  
C        C      0.594400000000     0.294800000000     0.000000000000     0.0220899  
C        C      0.601600000000     0.395100000000     0.000000000000     0.0220899  
Br       Br     0.707550000000     0.000000000000     0.500000000000    -0.221932   
Br       Br     0.292450000000     0.000000000000     0.500000000000    -0.221932   
N        N      0.500000000000     0.754200000000     0.000000000000    -0.176429   
N        N      0.500000000000     0.245800000000     0.000000000000    -0.176429   
O        O      0.624800000000     0.921030000000     0.910500000000    -0.305619   
O        O      0.375200000000     0.078970000000     0.910500000000    -0.305619   
O        O      0.375200000000     0.921030000000     0.089500000000    -0.305619   
O        O      0.624800000000     0.078970000000     0.089500000000    -0.305619   
O        O      0.375200000000     0.078970000000     0.089500000000    -0.305619   
O        O      0.624800000000     0.921030000000     0.089500000000    -0.305619   
O        O      0.624800000000     0.078970000000     0.910500000000    -0.305619   
O        O      0.375200000000     0.921030000000     0.910500000000    -0.305619   


