data_FUNBAS_original

_audit_creation_method RASPA-1.0
_audit_creation_date 2022-1-31
_audit_author_name 'Felipe Lopes de Oliveira <felipe.lopes.oliveira@ibm.com>'

_cell_length_a    11.521
_cell_length_b    14.008
_cell_length_c    15.701
_cell_angle_alpha 96.679
_cell_angle_beta  90
_cell_angle_gamma 90
_cell_volume      2516.73

_symmetry_cell_setting          triclinic
_symmetry_space_group_name_Hall 'P 1'
_symmetry_space_group_name_H-M  'P 1'
_symmetry_Int_Tables_number     1

_symmetry_equiv_pos_as_xyz 'x,y,z'

loop_
_atom_site_label
_atom_site_type_symbol
_atom_site_fract_x
_atom_site_fract_y
_atom_site_fract_z
_atom_site_charge
Zn       Zn     0.095200000000     0.195700000000     0.983080000000     0.467029   
Zn       Zn     0.095600000000     0.404600000000     0.002100000000     0.467029   
Zn       Zn     0.595200000000     0.804300000000     0.016920000000     0.467029   
Zn       Zn     0.595600000000     0.595400000000     0.997900000000     0.467029   
H        H      0.406900000000     0.179900000000     0.151600000000     0.0538139  
H        H      0.520200000000     0.174600000000     0.274700000000     0.0538139  
H        H      0.389000000000     0.431900000000     0.374700000000     0.0538139  
H        H      0.275800000000     0.437200000000     0.251600000000     0.0538139  
H        H      0.796400000000     0.296600000000     0.495600000000     0.0538139  
H        H      0.399100000000     0.277600000000     0.483400000000     0.0538139  
H        H      0.810500000000     0.412500000000     0.636700000000     0.0538139  
H        H      0.926500000000     0.412100000000     0.766000000000     0.0538139  
H        H      0.764500000000     0.167700000000     0.807200000000     0.0538139  
H        H      0.660000000000     0.165700000000     0.685400000000     0.0538139  
H        H      0.801600000000     0.164200000000     0.328000000000     0.0538139  
H        H      0.898600000000     0.170200000000     0.210300000000     0.0538139  
H        H      0.771700000000     0.428500000000     0.186400000000     0.0538139  
H        H      0.659500000000     0.415600000000     0.310700000000     0.0538139  
H        H      0.368400000000     0.167800000000     0.609700000000     0.0538139  
H        H      0.287200000000     0.154700000000     0.736000000000     0.0538139  
H        H      0.404400000000     0.419700000000     0.827300000000     0.0538139  
H        H      0.533700000000     0.402800000000     0.717200000000     0.0538139  
H        H      0.272100000000     0.567800000000     0.991200000000     0.0538139  
H        H      0.267800000000     0.716800000000     0.028500000000     0.0538139  
H        H      0.917400000000     0.738800000000     0.998600000000     0.0538139  
H        H      0.932800000000     0.564900000000     0.021000000000     0.0538139  
H        H      0.265000000000     0.852200000000     0.972400000000     0.0538139  
H        H      0.251000000000     0.035200000000     0.928600000000     0.0538139  
H        H      0.952000000000     0.038800000000     0.037500000000     0.0538139  
H        H      0.941000000000     0.878600000000     0.073800000000     0.0538139  
H        H      0.906900000000     0.820100000000     0.848400000000     0.0538139  
H        H      0.020200000000     0.825400000000     0.725300000000     0.0538139  
H        H      0.889000000000     0.568100000000     0.625300000000     0.0538139  
H        H      0.775800000000     0.562800000000     0.748400000000     0.0538139  
H        H      0.296400000000     0.703400000000     0.504400000000     0.0538139  
H        H      0.899100000000     0.722400000000     0.516600000000     0.0538139  
H        H      0.310500000000     0.587500000000     0.363300000000     0.0538139  
H        H      0.426500000000     0.587900000000     0.234000000000     0.0538139  
H        H      0.264500000000     0.832300000000     0.192800000000     0.0538139  
H        H      0.160000000000     0.834300000000     0.314600000000     0.0538139  
H        H      0.301600000000     0.835800000000     0.672000000000     0.0538139  
H        H      0.398600000000     0.829800000000     0.789700000000     0.0538139  
H        H      0.271700000000     0.571500000000     0.813600000000     0.0538139  
H        H      0.159500000000     0.584400000000     0.689300000000     0.0538139  
H        H      0.868400000000     0.832200000000     0.390300000000     0.0538139  
H        H      0.787200000000     0.845300000000     0.264000000000     0.0538139  
H        H      0.904400000000     0.580300000000     0.172700000000     0.0538139  
H        H      0.033700000000     0.597200000000     0.282800000000     0.0538139  
H        H      0.772100000000     0.432200000000     0.008800000000     0.0538139  
H        H      0.767800000000     0.283200000000     0.971500000000     0.0538139  
H        H      0.417400000000     0.261200000000     0.001400000000     0.0538139  
H        H      0.432800000000     0.435100000000     0.979000000000     0.0538139  
H        H      0.765000000000     0.147800000000     0.027600000000     0.0538139  
H        H      0.751000000000     0.964800000000     0.071400000000     0.0538139  
H        H      0.452000000000     0.961200000000     0.962500000000     0.0538139  
H        H      0.441000000000     0.121400000000     0.926200000000     0.0538139  
C        C      0.240000000000     0.313000000000     0.114000000000     0.00857761 
C        C      0.330700000000     0.309000000000     0.190000000000     0.00857761 
C        C      0.403300000000     0.231000000000     0.196900000000     0.00857761 
C        C      0.470600000000     0.227900000000     0.270000000000     0.00857761 
C        C      0.465200000000     0.302700000000     0.336300000000     0.00857761 
C        C      0.392700000000     0.380700000000     0.329400000000     0.00857761 
C        C      0.325400000000     0.383900000000     0.256300000000     0.00857761 
C        C      0.532000000000     0.281000000000     0.415000000000     0.00857761 
C        C      0.649000000000     0.302000000000     0.411000000000     0.00857761 
C        C      0.714000000000     0.292000000000     0.493000000000     0.00857761 
C        C      0.650000000000     0.275000000000     0.566000000000     0.00857761 
C        C      0.525000000000     0.295000000000     0.569000000000     0.00857761 
C        C      0.481000000000     0.284000000000     0.487000000000     0.00857761 
C        C      0.727000000000     0.288000000000     0.650000000000     0.00857761 
C        C      0.804000000000     0.362000000000     0.672000000000     0.00857761 
C        C      0.874000000000     0.361000000000     0.748000000000     0.00857761 
C        C      0.862000000000     0.286000000000     0.789000000000     0.00857761 
C        C      0.777000000000     0.216000000000     0.770000000000     0.00857761 
C        C      0.714000000000     0.216000000000     0.701000000000     0.00857761 
C        C      0.732000000000     0.293000000000     0.333000000000     0.00857761 
C        C      0.799000000000     0.221000000000     0.301000000000     0.00857761 
C        C      0.860000000000     0.227000000000     0.235000000000     0.00857761 
C        C      0.874000000000     0.304000000000     0.197000000000     0.00857761 
C        C      0.783000000000     0.377000000000     0.220000000000     0.00857761 
C        C      0.716000000000     0.368000000000     0.292000000000     0.00857761 
C        C      0.464000000000     0.276000000000     0.647000000000     0.00857761 
C        C      0.386000000000     0.215000000000     0.657000000000     0.00857761 
C        C      0.328000000000     0.212000000000     0.729000000000     0.00857761 
C        C      0.319000000000     0.297000000000     0.806000000000     0.00857761 
C        C      0.399000000000     0.363000000000     0.788000000000     0.00857761 
C        C      0.474000000000     0.356000000000     0.719000000000     0.00857761 
C        C      0.201000000000     0.601000000000     0.001900000000     0.00857761 
C        C      0.197000000000     0.685000000000     0.012000000000     0.00857761 
C        C      0.101000000000     0.745000000000     0.002300000000     0.00857761 
C        C      0.989000000000     0.705000000000     0.002700000000     0.00857761 
C        C      0.002000000000     0.599000000000     0.011000000000     0.00857761 
C        C      0.085000000000     0.852000000000     0.001000000000     0.00857761 
C        C      0.196000000000     0.889000000000     0.977000000000     0.00857761 
C        C      0.190000000000     0.006000000000     0.957000000000     0.00857761 
C        C      0.018000000000     0.001000000000     0.020000000000     0.00857761 
C        C      0.001000000000     0.902000000000     0.040000000000     0.00857761 
C        C      0.246000000000     0.296000000000     0.869000000000     0.00857761 
C        C      0.937000000000     0.306000000000     0.116000000000     0.00857761 
C        C      0.946000000000     0.283000000000     0.875000000000     0.00857761 
C        C      0.740000000000     0.687000000000     0.886000000000     0.00857761 
C        C      0.830700000000     0.691000000000     0.810000000000     0.00857761 
C        C      0.903300000000     0.769000000000     0.803100000000     0.00857761 
C        C      0.970600000000     0.772100000000     0.730000000000     0.00857761 
C        C      0.965200000000     0.697300000000     0.663700000000     0.00857761 
C        C      0.892700000000     0.619300000000     0.670600000000     0.00857761 
C        C      0.825400000000     0.616100000000     0.743700000000     0.00857761 
C        C      0.032000000000     0.719000000000     0.585000000000     0.00857761 
C        C      0.149000000000     0.698000000000     0.589000000000     0.00857761 
C        C      0.214000000000     0.708000000000     0.507000000000     0.00857761 
C        C      0.150000000000     0.725000000000     0.434000000000     0.00857761 
C        C      0.025000000000     0.705000000000     0.431000000000     0.00857761 
C        C      0.981000000000     0.716000000000     0.513000000000     0.00857761 
C        C      0.227000000000     0.712000000000     0.350000000000     0.00857761 
C        C      0.304000000000     0.638000000000     0.328000000000     0.00857761 
C        C      0.374000000000     0.639000000000     0.252000000000     0.00857761 
C        C      0.362000000000     0.714000000000     0.211000000000     0.00857761 
C        C      0.277000000000     0.784000000000     0.230000000000     0.00857761 
C        C      0.214000000000     0.784000000000     0.299000000000     0.00857761 
C        C      0.232000000000     0.707000000000     0.667000000000     0.00857761 
C        C      0.299000000000     0.779000000000     0.699000000000     0.00857761 
C        C      0.360000000000     0.773000000000     0.765000000000     0.00857761 
C        C      0.374000000000     0.696000000000     0.803000000000     0.00857761 
C        C      0.283000000000     0.623000000000     0.780000000000     0.00857761 
C        C      0.216000000000     0.632000000000     0.708000000000     0.00857761 
C        C      0.964000000000     0.724000000000     0.353000000000     0.00857761 
C        C      0.886000000000     0.785000000000     0.343000000000     0.00857761 
C        C      0.828000000000     0.788000000000     0.271000000000     0.00857761 
C        C      0.819000000000     0.703000000000     0.194000000000     0.00857761 
C        C      0.899000000000     0.637000000000     0.212000000000     0.00857761 
C        C      0.974000000000     0.644000000000     0.281000000000     0.00857761 
C        C      0.701000000000     0.399000000000     0.998100000000     0.00857761 
C        C      0.697000000000     0.315000000000     0.988000000000     0.00857761 
C        C      0.601000000000     0.255000000000     0.997700000000     0.00857761 
C        C      0.489000000000     0.295000000000     0.997300000000     0.00857761 
C        C      0.502000000000     0.401000000000     0.989000000000     0.00857761 
C        C      0.585000000000     0.148000000000     0.999000000000     0.00857761 
C        C      0.696000000000     0.111000000000     0.023000000000     0.00857761 
C        C      0.690000000000     0.994000000000     0.043000000000     0.00857761 
C        C      0.518000000000     0.999000000000     0.980000000000     0.00857761 
C        C      0.501000000000     0.098000000000     0.960000000000     0.00857761 
C        C      0.746000000000     0.704000000000     0.131000000000     0.00857761 
C        C      0.437000000000     0.694000000000     0.884000000000     0.00857761 
C        C      0.446000000000     0.717000000000     0.125000000000     0.00857761 
N        N      0.097000000000     0.549900000000     0.006200000000    -0.158684   
N        N      0.094000000000     0.055300000000     0.985700000000    -0.158684   
N        N      0.597000000000     0.450100000000     0.993800000000    -0.158684   
N        N      0.594000000000     0.944700000000     0.014300000000    -0.158684   
O        O      0.229000000000     0.385000000000     0.086200000000    -0.299158   
O        O      0.229100000000     0.223200000000     0.067400000000    -0.299158   
O        O      0.232000000000     0.376000000000     0.919700000000    -0.299158   
O        O      0.233800000000     0.209000000000     0.903600000000    -0.299158   
O        O      0.991200000000     0.234700000000     0.085400000000    -0.299158   
O        O      0.986000000000     0.390000000000     0.101200000000    -0.299158   
O        O      0.983300000000     0.364000000000     0.904700000000    -0.299158   
O        O      0.983400000000     0.216000000000     0.887700000000    -0.299158   
O        O      0.729000000000     0.615000000000     0.913800000000    -0.299158   
O        O      0.729100000000     0.776800000000     0.932600000000    -0.299158   
O        O      0.732000000000     0.624000000000     0.080300000000    -0.299158   
O        O      0.733800000000     0.791000000000     0.096400000000    -0.299158   
O        O      0.491200000000     0.765300000000     0.914600000000    -0.299158   
O        O      0.486000000000     0.610000000000     0.898800000000    -0.299158   
O        O      0.483300000000     0.636000000000     0.095300000000    -0.299158   
O        O      0.483400000000     0.784000000000     0.112300000000    -0.299158   


