data_FUNCAT_original

_audit_creation_method RASPA-1.0
_audit_creation_date 2022-1-30
_audit_author_name 'Felipe Lopes de Oliveira <felipe.lopes.oliveira@ibm.com>'

_cell_length_a    11.5857
_cell_length_b    15.674
_cell_length_c    18.118
_cell_angle_alpha 90
_cell_angle_beta  90
_cell_angle_gamma 90
_cell_volume      3290.12

_symmetry_cell_setting          triclinic
_symmetry_space_group_name_Hall 'P 1'
_symmetry_space_group_name_H-M  'P 1'
_symmetry_Int_Tables_number     1

_symmetry_equiv_pos_as_xyz 'x,y,z'

loop_
_atom_site_label
_atom_site_type_symbol
_atom_site_fract_x
_atom_site_fract_y
_atom_site_fract_z
_atom_site_charge
Zn       Zn     0.250740000000     0.507190000000     0.774150000000     0.464316   
Zn       Zn     0.257770000000     0.505730000000     0.935520000000     0.464316   
Zn       Zn     0.750740000000     0.492810000000     0.225850000000     0.464316   
Zn       Zn     0.757770000000     0.494270000000     0.064480000000     0.464316   
H        H      0.089800000000     0.477300000000     0.182400000000     0.0587409  
H        H      0.427800000000     0.509700000000     0.184300000000     0.0587409  
H        H      0.952700000000     0.010200000000     0.858000000000     0.0587409  
H        H      0.561900000000     0.004000000000     0.823800000000     0.0587409  
H        H      0.417500000000     0.761500000000     0.939000000000     0.0587409  
H        H      0.074100000000     0.261300000000     0.950500000000     0.0587409  
H        H      0.540000000000     0.875500000000     0.932400000000     0.0587409  
H        H      0.963400000000     0.140700000000     0.951500000000     0.0587409  
H        H      0.575600000000     0.669600000000     0.759900000000     0.0587409  
H        H      0.952500000000     0.333100000000     0.759100000000     0.0587409  
H        H      0.704100000000     0.779500000000     0.762300000000     0.0587409  
H        H      0.837400000000     0.214400000000     0.753100000000     0.0587409  
H        H      0.092600000000     0.491400000000     0.058400000000     0.0587409  
H        H      0.425000000000     0.522100000000     0.060800000000     0.0587409  
H        H      0.086200000000     0.753000000000     0.764700000000     0.0587409  
H        H      0.430200000000     0.266200000000     0.750300000000     0.0587409  
H        H      0.921200000000     0.668700000000     0.943700000000     0.0587409  
H        H      0.568400000000     0.331400000000     0.946900000000     0.0587409  
H        H      0.975200000000     0.876700000000     0.761900000000     0.0587409  
H        H      0.554800000000     0.153800000000     0.737400000000     0.0587409  
H        H      0.810900000000     0.791100000000     0.941400000000     0.0587409  
H        H      0.685500000000     0.211500000000     0.935600000000     0.0587409  
H        H      0.086500000000     0.479300000000     0.522200000000     0.0587409  
H        H      0.422400000000     0.511300000000     0.519900000000     0.0587409  
H        H      0.088600000000     0.487600000000     0.647400000000     0.0587409  
H        H      0.422200000000     0.519200000000     0.645200000000     0.0587409  
H        H      0.589800000000     0.522700000000     0.817600000000     0.0587409  
H        H      0.927800000000     0.490300000000     0.815700000000     0.0587409  
H        H      0.452700000000     0.989800000000     0.142000000000     0.0587409  
H        H      0.061900000000     0.996000000000     0.176200000000     0.0587409  
H        H      0.917500000000     0.238500000000     0.061000000000     0.0587409  
H        H      0.574100000000     0.738700000000     0.049500000000     0.0587409  
H        H      0.040000000000     0.124500000000     0.067600000000     0.0587409  
H        H      0.463400000000     0.859300000000     0.048500000000     0.0587409  
H        H      0.075600000000     0.330400000000     0.240100000000     0.0587409  
H        H      0.452500000000     0.666900000000     0.240900000000     0.0587409  
H        H      0.204100000000     0.220500000000     0.237700000000     0.0587409  
H        H      0.337400000000     0.785600000000     0.246900000000     0.0587409  
H        H      0.592600000000     0.508600000000     0.941600000000     0.0587409  
H        H      0.925000000000     0.477900000000     0.939200000000     0.0587409  
H        H      0.586200000000     0.247000000000     0.235300000000     0.0587409  
H        H      0.930200000000     0.733800000000     0.249700000000     0.0587409  
H        H      0.421200000000     0.331300000000     0.056300000000     0.0587409  
H        H      0.068400000000     0.668600000000     0.053100000000     0.0587409  
H        H      0.475200000000     0.123300000000     0.238100000000     0.0587409  
H        H      0.054800000000     0.846200000000     0.262600000000     0.0587409  
H        H      0.310900000000     0.208900000000     0.058600000000     0.0587409  
H        H      0.185500000000     0.788500000000     0.064400000000     0.0587409  
H        H      0.586500000000     0.520700000000     0.477800000000     0.0587409  
H        H      0.922400000000     0.488700000000     0.480100000000     0.0587409  
H        H      0.588600000000     0.512400000000     0.352600000000     0.0587409  
H        H      0.922200000000     0.480800000000     0.354800000000     0.0587409  
C        C      0.478200000000     0.702380000000     0.846650000000     0.011595   
C        C      0.030590000000     0.314650000000     0.855540000000     0.011595   
C        C      0.400600000000     0.626800000000     0.848300000000     0.011595   
C        C      0.099730000000     0.393630000000     0.850960000000     0.011595   
C        C      0.626800000000     0.851460000000     0.839590000000     0.011595   
C        C      0.886800000000     0.164530000000     0.851980000000     0.011595   
C        C      0.890000000000     0.849300000000     0.857620000000     0.011595   
C        C      0.623500000000     0.166420000000     0.839640000000     0.011595   
C        C      0.160500000000     0.487640000000     0.159730000000     0.011595   
C        C      0.356600000000     0.506250000000     0.160840000000     0.011595   
C        C      0.815600000000     0.925900000000     0.855000000000     0.011595   
C        C      0.689200000000     0.085600000000     0.836900000000     0.011595   
C        C      0.105900000000     0.628800000000     0.859600000000     0.011595   
C        C      0.406500000000     0.383200000000     0.855500000000     0.011595   
C        C      0.027100000000     0.703800000000     0.860070000000     0.011595   
C        C      0.486900000000     0.311900000000     0.847470000000     0.011595   
C        C      0.872900000000     0.008200000000     0.852800000000     0.011595   
C        C      0.640900000000     0.006200000000     0.832700000000     0.011595   
C        C      0.693900000000     0.932700000000     0.839900000000     0.011595   
C        C      0.808200000000     0.089900000000     0.842300000000     0.011595   
C        C      0.470500000000     0.765600000000     0.900600000000     0.011595   
C        C      0.026170000000     0.252440000000     0.910030000000     0.011595   
C        C      0.545000000000     0.835100000000     0.895000000000     0.011595   
C        C      0.959600000000     0.178700000000     0.912100000000     0.011595   
C        C      0.566300000000     0.711800000000     0.795500000000     0.011595   
C        C      0.955800000000     0.294830000000     0.798300000000     0.011595   
C        C      0.641500000000     0.780700000000     0.794500000000     0.011595   
C        C      0.884900000000     0.223060000000     0.793800000000     0.011595   
C        C      0.162500000000     0.494890000000     0.083480000000     0.011595   
C        C      0.355100000000     0.512800000000     0.084800000000     0.011595   
C        C      0.259000000000     0.494910000000     0.205100000000     0.011595   
C        C      0.034400000000     0.763300000000     0.802900000000     0.011595   
C        C      0.483600000000     0.255650000000     0.787540000000     0.011595   
C        C      0.936900000000     0.711700000000     0.909800000000     0.011595   
C        C      0.563500000000     0.295700000000     0.906000000000     0.011595   
C        C      0.258730000000     0.487660000000     0.286330000000     0.011595   
C        C      0.967900000000     0.837400000000     0.800100000000     0.011595   
C        C      0.553900000000     0.186300000000     0.780400000000     0.011595   
C        C      0.870800000000     0.785000000000     0.907600000000     0.011595   
C        C      0.631600000000     0.223000000000     0.898840000000     0.011595   
C        C      0.254860000000     0.490580000000     0.421460000000     0.011595   
C        C      0.253910000000     0.495200000000     0.502730000000     0.011595   
C        C      0.156900000000     0.487880000000     0.545710000000     0.011595   
C        C      0.352200000000     0.506470000000     0.544470000000     0.011595   
C        C      0.157700000000     0.492520000000     0.621630000000     0.011595   
C        C      0.352800000000     0.511020000000     0.620400000000     0.011595   
C        C      0.978200000000     0.297620000000     0.153350000000     0.011595   
C        C      0.530590000000     0.685350000000     0.144460000000     0.011595   
C        C      0.900600000000     0.373200000000     0.151700000000     0.011595   
C        C      0.599730000000     0.606370000000     0.149040000000     0.011595   
C        C      0.126800000000     0.148540000000     0.160410000000     0.011595   
C        C      0.386800000000     0.835470000000     0.148020000000     0.011595   
C        C      0.390000000000     0.150700000000     0.142380000000     0.011595   
C        C      0.123500000000     0.833580000000     0.160360000000     0.011595   
C        C      0.660500000000     0.512360000000     0.840270000000     0.011595   
C        C      0.856600000000     0.493750000000     0.839160000000     0.011595   
C        C      0.315600000000     0.074100000000     0.145000000000     0.011595   
C        C      0.189200000000     0.914400000000     0.163100000000     0.011595   
C        C      0.605900000000     0.371200000000     0.140400000000     0.011595   
C        C      0.906500000000     0.616800000000     0.144500000000     0.011595   
C        C      0.527100000000     0.296200000000     0.139930000000     0.011595   
C        C      0.986900000000     0.688100000000     0.152530000000     0.011595   
C        C      0.372900000000     0.991800000000     0.147200000000     0.011595   
C        C      0.140900000000     0.993800000000     0.167300000000     0.011595   
C        C      0.193900000000     0.067300000000     0.160100000000     0.011595   
C        C      0.308200000000     0.910100000000     0.157700000000     0.011595   
C        C      0.970500000000     0.234400000000     0.099400000000     0.011595   
C        C      0.526170000000     0.747560000000     0.089970000000     0.011595   
C        C      0.045000000000     0.164900000000     0.105000000000     0.011595   
C        C      0.459600000000     0.821300000000     0.087900000000     0.011595   
C        C      0.066300000000     0.288200000000     0.204500000000     0.011595   
C        C      0.455800000000     0.705170000000     0.201700000000     0.011595   
C        C      0.141500000000     0.219300000000     0.205500000000     0.011595   
C        C      0.384900000000     0.776940000000     0.206200000000     0.011595   
C        C      0.662500000000     0.505110000000     0.916520000000     0.011595   
C        C      0.855100000000     0.487200000000     0.915200000000     0.011595   
C        C      0.759000000000     0.505090000000     0.794900000000     0.011595   
C        C      0.534400000000     0.236700000000     0.197100000000     0.011595   
C        C      0.983600000000     0.744350000000     0.212460000000     0.011595   
C        C      0.436900000000     0.288300000000     0.090200000000     0.011595   
C        C      0.063500000000     0.704300000000     0.094000000000     0.011595   
C        C      0.758730000000     0.512340000000     0.713670000000     0.011595   
C        C      0.467900000000     0.162600000000     0.199900000000     0.011595   
C        C      0.053900000000     0.813700000000     0.219600000000     0.011595   
C        C      0.370800000000     0.215000000000     0.092400000000     0.011595   
C        C      0.131600000000     0.777000000000     0.101160000000     0.011595   
C        C      0.754860000000     0.509420000000     0.578540000000     0.011595   
C        C      0.753910000000     0.504800000000     0.497270000000     0.011595   
C        C      0.656900000000     0.512120000000     0.454290000000     0.011595   
C        C      0.852200000000     0.493530000000     0.455530000000     0.011595   
C        C      0.657700000000     0.507480000000     0.378370000000     0.011595   
C        C      0.852800000000     0.488980000000     0.379600000000     0.011595   
N        N      0.259260000000     0.506640000000     0.043100000000    -0.110886   
N        N      0.359800000000     0.494640000000     0.318120000000    -0.110886   
N        N      0.159300000000     0.475600000000     0.321080000000    -0.110886   
N        N      0.356300000000     0.498060000000     0.388990000000    -0.110886   
N        N      0.150200000000     0.478810000000     0.392300000000    -0.110886   
N        N      0.255370000000     0.503920000000     0.658790000000    -0.110886   
N        N      0.759260000000     0.493360000000     0.956900000000    -0.110886   
N        N      0.859800000000     0.505360000000     0.681880000000    -0.110886   
N        N      0.659300000000     0.524400000000     0.678920000000    -0.110886   
N        N      0.856300000000     0.501940000000     0.611010000000    -0.110886   
N        N      0.650200000000     0.521190000000     0.607700000000    -0.110886   
N        N      0.755370000000     0.496080000000     0.341210000000    -0.110886   
O        O      0.395500000000     0.585500000000     0.918400000000    -0.290493   
O        O      0.139000000000     0.421800000000     0.923500000000    -0.290493   
O        O      0.146000000000     0.603450000000     0.916130000000    -0.290493   
O        O      0.382100000000     0.413580000000     0.911160000000    -0.290493   
O        O      0.394700000000     0.586600000000     0.783500000000    -0.290493   
O        O      0.114900000000     0.425200000000     0.789900000000    -0.290493   
O        O      0.146100000000     0.609300000000     0.802130000000    -0.290493   
O        O      0.355600000000     0.404500000000     0.793790000000    -0.290493   
O        O      0.895500000000     0.414500000000     0.081600000000    -0.290493   
O        O      0.639000000000     0.578200000000     0.076500000000    -0.290493   
O        O      0.646000000000     0.396550000000     0.083870000000    -0.290493   
O        O      0.882100000000     0.586420000000     0.088840000000    -0.290493   
O        O      0.894700000000     0.413400000000     0.216500000000    -0.290493   
O        O      0.614900000000     0.574800000000     0.210100000000    -0.290493   
O        O      0.646100000000     0.390700000000     0.197870000000    -0.290493   
O        O      0.855600000000     0.595500000000     0.206210000000    -0.290493   


