data_FUTDII_original

_audit_creation_method RASPA-1.0
_audit_creation_date 2022-1-30
_audit_author_name 'Felipe Lopes de Oliveira <felipe.lopes.oliveira@ibm.com>'

_cell_length_a    16.5413
_cell_length_b    16.5956
_cell_length_c    16.5957
_cell_angle_alpha 109.537
_cell_angle_beta  109.405
_cell_angle_gamma 109.405
_cell_volume      3509.89

_symmetry_cell_setting          triclinic
_symmetry_space_group_name_Hall 'P 1'
_symmetry_space_group_name_H-M  'P 1'
_symmetry_Int_Tables_number     1

_symmetry_equiv_pos_as_xyz 'x,y,z'

loop_
_atom_site_label
_atom_site_type_symbol
_atom_site_fract_x
_atom_site_fract_y
_atom_site_fract_z
_atom_site_charge
Fe       Fe     0.473840000000     0.401430000000     0.000000000000     0.756016   
Fe       Fe     0.473840000000     0.000000000000     0.401430000000     0.756016   
Fe       Fe     0.072410000000     0.598570000000     0.598570000000     0.756016   
Fe       Fe     0.927590000000     0.401430000000     0.401430000000     0.756016   
Fe       Fe     0.526160000000     0.000000000000     0.598570000000     0.756016   
Fe       Fe     0.526160000000     0.598570000000     0.000000000000     0.756016   
H        H      0.201600000000     0.232500000000     0.736100000000     0.0513204  
H        H      0.214000000000     0.174000000000     0.536300000000     0.0513204  
H        H      0.243400000000     0.073000000000     0.423100000000     0.0513204  
H        H      0.465500000000     0.263900000000     0.496400000000     0.0513204  
H        H      0.677700000000     0.463700000000     0.637700000000     0.0513204  
H        H      0.820300000000     0.576900000000     0.649900000000     0.0513204  
H        H      0.969100000000     0.503600000000     0.767500000000     0.0513204  
H        H      0.040000000000     0.362300000000     0.826000000000     0.0513204  
H        H      0.170400000000     0.350100000000     0.927000000000     0.0513204  
H        H      0.030900000000     0.232500000000     0.496400000000     0.0513204  
H        H      0.960000000000     0.174000000000     0.637700000000     0.0513204  
H        H      0.829600000000     0.073000000000     0.649900000000     0.0513204  
H        H      0.798400000000     0.263900000000     0.767500000000     0.0513204  
H        H      0.786000000000     0.463700000000     0.826000000000     0.0513204  
H        H      0.756600000000     0.576900000000     0.927000000000     0.0513204  
H        H      0.534500000000     0.503600000000     0.736100000000     0.0513204  
H        H      0.322300000000     0.362300000000     0.536300000000     0.0513204  
H        H      0.179700000000     0.350100000000     0.423100000000     0.0513204  
H        H      0.798400000000     0.767500000000     0.263900000000     0.0513204  
H        H      0.786000000000     0.826000000000     0.463700000000     0.0513204  
H        H      0.756600000000     0.927000000000     0.576900000000     0.0513204  
H        H      0.534500000000     0.736100000000     0.503600000000     0.0513204  
H        H      0.322300000000     0.536300000000     0.362300000000     0.0513204  
H        H      0.179700000000     0.423100000000     0.350100000000     0.0513204  
H        H      0.030900000000     0.496400000000     0.232500000000     0.0513204  
H        H      0.960000000000     0.637700000000     0.174000000000     0.0513204  
H        H      0.829600000000     0.649900000000     0.073000000000     0.0513204  
H        H      0.969100000000     0.767500000000     0.503600000000     0.0513204  
H        H      0.040000000000     0.826000000000     0.362300000000     0.0513204  
H        H      0.170400000000     0.927000000000     0.350100000000     0.0513204  
H        H      0.201600000000     0.736100000000     0.232500000000     0.0513204  
H        H      0.214000000000     0.536300000000     0.174000000000     0.0513204  
H        H      0.243400000000     0.423100000000     0.073000000000     0.0513204  
H        H      0.465500000000     0.496400000000     0.263900000000     0.0513204  
H        H      0.677700000000     0.637700000000     0.463700000000     0.0513204  
H        H      0.820300000000     0.649900000000     0.576900000000     0.0513204  
H        H      0.245400000000     0.490800000000     0.745400000000     0.0513204  
H        H      0.500000000000     0.254600000000     0.745400000000     0.0513204  
H        H      0.754600000000     0.254600000000     0.509200000000     0.0513204  
H        H      0.754600000000     0.509200000000     0.254600000000     0.0513204  
H        H      0.500000000000     0.745400000000     0.254600000000     0.0513204  
H        H      0.245400000000     0.745400000000     0.490800000000     0.0513204  
C        C      0.328300000000     0.423400000000     0.854200000000     0.0244149  
C        C      0.240100000000     0.369200000000     0.754200000000     0.0244149  
C        C      0.185400000000     0.267200000000     0.703800000000     0.0244149  
C        C      0.088100000000     0.053600000000     0.500100000000     0.0244149  
C        C      0.172500000000     0.104200000000     0.497800000000     0.0244149  
C        C      0.190800000000     0.041700000000     0.432800000000     0.0244149  
C        C      0.474100000000     0.145800000000     0.569200000000     0.0244149  
C        C      0.485900000000     0.245800000000     0.615000000000     0.0244149  
C        C      0.481600000000     0.296200000000     0.563400000000     0.0244149  
C        C      0.588000000000     0.499900000000     0.553500000000     0.0244149  
C        C      0.674700000000     0.502200000000     0.606400000000     0.0244149  
C        C      0.758000000000     0.567200000000     0.608900000000     0.0244149  
C        C      0.904900000000     0.430800000000     0.576600000000     0.0244149  
C        C      0.870900000000     0.385000000000     0.630800000000     0.0244149  
C        C      0.918200000000     0.436600000000     0.732800000000     0.0244149  
C        C      0.034500000000     0.446500000000     0.946400000000     0.0244149  
C        C      0.068300000000     0.393600000000     0.895800000000     0.0244149  
C        C      0.149100000000     0.391100000000     0.958300000000     0.0244149  
C        C      0.095100000000     0.423400000000     0.569200000000     0.0244149  
C        C      0.129100000000     0.369200000000     0.615000000000     0.0244149  
C        C      0.081800000000     0.267200000000     0.563400000000     0.0244149  
C        C      0.965500000000     0.053600000000     0.553500000000     0.0244149  
C        C      0.931700000000     0.104200000000     0.606400000000     0.0244149  
C        C      0.850900000000     0.041700000000     0.608900000000     0.0244149  
C        C      0.671700000000     0.145800000000     0.576600000000     0.0244149  
C        C      0.759900000000     0.245800000000     0.630800000000     0.0244149  
C        C      0.814600000000     0.296200000000     0.732800000000     0.0244149  
C        C      0.911900000000     0.499900000000     0.946400000000     0.0244149  
C        C      0.827500000000     0.502200000000     0.895800000000     0.0244149  
C        C      0.809200000000     0.567200000000     0.958300000000     0.0244149  
C        C      0.525900000000     0.430800000000     0.854200000000     0.0244149  
C        C      0.514100000000     0.385000000000     0.754200000000     0.0244149  
C        C      0.518400000000     0.436600000000     0.703800000000     0.0244149  
C        C      0.412000000000     0.446500000000     0.500100000000     0.0244149  
C        C      0.325300000000     0.393600000000     0.497800000000     0.0244149  
C        C      0.242000000000     0.391100000000     0.432800000000     0.0244149  
C        C      0.671700000000     0.576600000000     0.145800000000     0.0244149  
C        C      0.759900000000     0.630800000000     0.245800000000     0.0244149  
C        C      0.814600000000     0.732800000000     0.296200000000     0.0244149  
C        C      0.911900000000     0.946400000000     0.499900000000     0.0244149  
C        C      0.827500000000     0.895800000000     0.502200000000     0.0244149  
C        C      0.809200000000     0.958300000000     0.567200000000     0.0244149  
C        C      0.525900000000     0.854200000000     0.430800000000     0.0244149  
C        C      0.514100000000     0.754200000000     0.385000000000     0.0244149  
C        C      0.518400000000     0.703800000000     0.436600000000     0.0244149  
C        C      0.412000000000     0.500100000000     0.446500000000     0.0244149  
C        C      0.325300000000     0.497800000000     0.393600000000     0.0244149  
C        C      0.242000000000     0.432800000000     0.391100000000     0.0244149  
C        C      0.095100000000     0.569200000000     0.423400000000     0.0244149  
C        C      0.129100000000     0.615000000000     0.369200000000     0.0244149  
C        C      0.081800000000     0.563400000000     0.267200000000     0.0244149  
C        C      0.965500000000     0.553500000000     0.053600000000     0.0244149  
C        C      0.931700000000     0.606400000000     0.104200000000     0.0244149  
C        C      0.850900000000     0.608900000000     0.041700000000     0.0244149  
C        C      0.904900000000     0.576600000000     0.430800000000     0.0244149  
C        C      0.870900000000     0.630800000000     0.385000000000     0.0244149  
C        C      0.918200000000     0.732800000000     0.436600000000     0.0244149  
C        C      0.034500000000     0.946400000000     0.446500000000     0.0244149  
C        C      0.068300000000     0.895800000000     0.393600000000     0.0244149  
C        C      0.149100000000     0.958300000000     0.391100000000     0.0244149  
C        C      0.328300000000     0.854200000000     0.423400000000     0.0244149  
C        C      0.240100000000     0.754200000000     0.369200000000     0.0244149  
C        C      0.185400000000     0.703800000000     0.267200000000     0.0244149  
C        C      0.088100000000     0.500100000000     0.053600000000     0.0244149  
C        C      0.172500000000     0.497800000000     0.104200000000     0.0244149  
C        C      0.190800000000     0.432800000000     0.041700000000     0.0244149  
C        C      0.474100000000     0.569200000000     0.145800000000     0.0244149  
C        C      0.485900000000     0.615000000000     0.245800000000     0.0244149  
C        C      0.481600000000     0.563400000000     0.296200000000     0.0244149  
C        C      0.588000000000     0.553500000000     0.499900000000     0.0244149  
C        C      0.674700000000     0.606400000000     0.502200000000     0.0244149  
C        C      0.758000000000     0.608900000000     0.567200000000     0.0244149  
C        C      0.210400000000     0.420800000000     0.710400000000     0.0244149  
C        C      0.106900000000     0.213800000000     0.606900000000     0.0244149  
C        C      0.051500000000     0.103000000000     0.551500000000     0.0244149  
C        C      0.500000000000     0.289600000000     0.710400000000     0.0244149  
C        C      0.500000000000     0.393100000000     0.606900000000     0.0244149  
C        C      0.500000000000     0.448500000000     0.551500000000     0.0244149  
C        C      0.789600000000     0.289600000000     0.579200000000     0.0244149  
C        C      0.893100000000     0.393100000000     0.786200000000     0.0244149  
C        C      0.948500000000     0.448500000000     0.897000000000     0.0244149  
C        C      0.789600000000     0.579200000000     0.289600000000     0.0244149  
C        C      0.893100000000     0.786200000000     0.393100000000     0.0244149  
C        C      0.948500000000     0.897000000000     0.448500000000     0.0244149  
C        C      0.500000000000     0.710400000000     0.289600000000     0.0244149  
C        C      0.500000000000     0.606900000000     0.393100000000     0.0244149  
C        C      0.500000000000     0.551500000000     0.448500000000     0.0244149  
C        C      0.210400000000     0.710400000000     0.420800000000     0.0244149  
C        C      0.106900000000     0.606900000000     0.213800000000     0.0244149  
C        C      0.051500000000     0.551500000000     0.103000000000     0.0244149  
O        O      0.345150000000     0.374380000000     0.893470000000    -0.37037    
O        O      0.379000000000     0.516400000000     0.893200000000    -0.37037    
O        O      0.451680000000     0.106530000000     0.480910000000    -0.37037    
O        O      0.485800000000     0.106800000000     0.623200000000    -0.37037    
O        O      0.970770000000     0.519090000000     0.625620000000    -0.37037    
O        O      0.862600000000     0.376800000000     0.483600000000    -0.37037    
O        O      0.029230000000     0.374380000000     0.480910000000    -0.37037    
O        O      0.137400000000     0.516400000000     0.623200000000    -0.37037    
O        O      0.654850000000     0.106530000000     0.625620000000    -0.37037    
O        O      0.621000000000     0.106800000000     0.483600000000    -0.37037    
O        O      0.548320000000     0.519090000000     0.893470000000    -0.37037    
O        O      0.514200000000     0.376800000000     0.893200000000    -0.37037    
O        O      0.654850000000     0.625620000000     0.106530000000    -0.37037    
O        O      0.621000000000     0.483600000000     0.106800000000    -0.37037    
O        O      0.548320000000     0.893470000000     0.519090000000    -0.37037    
O        O      0.514200000000     0.893200000000     0.376800000000    -0.37037    
O        O      0.029230000000     0.480910000000     0.374380000000    -0.37037    
O        O      0.137400000000     0.623200000000     0.516400000000    -0.37037    
O        O      0.970770000000     0.625620000000     0.519090000000    -0.37037    
O        O      0.862600000000     0.483600000000     0.376800000000    -0.37037    
O        O      0.345150000000     0.893470000000     0.374380000000    -0.37037    
O        O      0.379000000000     0.893200000000     0.516400000000    -0.37037    
O        O      0.451680000000     0.480910000000     0.106530000000    -0.37037    
O        O      0.485800000000     0.623200000000     0.106800000000    -0.37037    


