data_FUWXOL_original

_audit_creation_method RASPA-1.0
_audit_creation_date 2022-1-30
_audit_author_name 'Felipe Lopes de Oliveira <felipe.lopes.oliveira@ibm.com>'

_cell_length_a    8.6429
_cell_length_b    8.8848
_cell_length_c    15.4504
_cell_angle_alpha 90
_cell_angle_beta  90
_cell_angle_gamma 90
_cell_volume      1186.44

_symmetry_cell_setting          triclinic
_symmetry_space_group_name_Hall 'P 1'
_symmetry_space_group_name_H-M  'P 1'
_symmetry_Int_Tables_number     1

_symmetry_equiv_pos_as_xyz 'x,y,z'

loop_
_atom_site_label
_atom_site_type_symbol
_atom_site_fract_x
_atom_site_fract_y
_atom_site_fract_z
_atom_site_charge
Zn       Zn     0.951480000000     0.255480000000     0.373540000000     0.386039   
Zn       Zn     0.548520000000     0.744520000000     0.873540000000     0.386039   
Zn       Zn     0.048520000000     0.755480000000     0.126460000000     0.386039   
Zn       Zn     0.451480000000     0.244520000000     0.626460000000     0.386039   
H        H      0.556000000000     0.146000000000     0.333000000000     0.0308685  
H        H      0.944000000000     0.854000000000     0.833000000000     0.0308685  
H        H      0.444000000000     0.646000000000     0.167000000000     0.0308685  
H        H      0.056000000000     0.354000000000     0.667000000000     0.0308685  
C        C      0.620800000000     0.127300000000     0.289300000000     0.0867249  
C        C      0.718300000000     0.989800000000     0.183100000000     0.0867249  
C        C      0.718200000000     0.905200000000     0.102500000000     0.0867249  
C        C      0.835200000000     0.045600000000     0.233800000000     0.0867249  
C        C      0.001600000000     0.038100000000     0.232500000000     0.0867249  
C        C      0.879200000000     0.872700000000     0.789300000000     0.0867249  
C        C      0.781700000000     0.010200000000     0.683100000000     0.0867249  
C        C      0.781800000000     0.094800000000     0.602500000000     0.0867249  
C        C      0.664800000000     0.954400000000     0.733800000000     0.0867249  
C        C      0.498400000000     0.961900000000     0.732500000000     0.0867249  
C        C      0.379200000000     0.627300000000     0.210700000000     0.0867249  
C        C      0.281700000000     0.489800000000     0.316900000000     0.0867249  
C        C      0.281800000000     0.405200000000     0.397500000000     0.0867249  
C        C      0.164800000000     0.545600000000     0.266200000000     0.0867249  
C        C      0.998400000000     0.538100000000     0.267500000000     0.0867249  
C        C      0.120800000000     0.372700000000     0.710700000000     0.0867249  
C        C      0.218300000000     0.510200000000     0.816900000000     0.0867249  
C        C      0.218200000000     0.594800000000     0.897500000000     0.0867249  
C        C      0.335200000000     0.454400000000     0.766200000000     0.0867249  
C        C      0.501600000000     0.461900000000     0.767500000000     0.0867249  
N        N      0.773200000000     0.132900000000     0.300200000000    -0.0850532  
N        N      0.583200000000     0.040100000000     0.220600000000    -0.0850532  
N        N      0.594800000000     0.892600000000     0.052500000000    -0.0850532  
N        N      0.648000000000     0.810400000000     0.986500000000    -0.0850532  
N        N      0.793500000000     0.775900000000     0.995400000000    -0.0850532  
N        N      0.841400000000     0.834500000000     0.070200000000    -0.0850532  
N        N      0.079000000000     0.128700000000     0.286000000000    -0.0850532  
N        N      0.230700000000     0.099600000000     0.273400000000    -0.0850532  
N        N      0.243000000000     0.993500000000     0.214200000000    -0.0850532  
N        N      0.098400000000     0.954000000000     0.186900000000    -0.0850532  
N        N      0.726800000000     0.867100000000     0.800200000000    -0.0850532  
N        N      0.916800000000     0.959900000000     0.720600000000    -0.0850532  
N        N      0.905200000000     0.107400000000     0.552500000000    -0.0850532  
N        N      0.852000000000     0.189600000000     0.486500000000    -0.0850532  
N        N      0.706500000000     0.224100000000     0.495400000000    -0.0850532  
N        N      0.658600000000     0.165500000000     0.570200000000    -0.0850532  
N        N      0.421000000000     0.871300000000     0.786000000000    -0.0850532  
N        N      0.269300000000     0.900400000000     0.773400000000    -0.0850532  
N        N      0.257000000000     0.006500000000     0.714200000000    -0.0850532  
N        N      0.401600000000     0.046000000000     0.686900000000    -0.0850532  
N        N      0.226800000000     0.632900000000     0.199800000000    -0.0850532  
N        N      0.416800000000     0.540100000000     0.279400000000    -0.0850532  
N        N      0.405200000000     0.392600000000     0.447500000000    -0.0850532  
N        N      0.352000000000     0.310400000000     0.513500000000    -0.0850532  
N        N      0.206500000000     0.275900000000     0.504600000000    -0.0850532  
N        N      0.158600000000     0.334500000000     0.429800000000    -0.0850532  
N        N      0.921000000000     0.628700000000     0.214000000000    -0.0850532  
N        N      0.769300000000     0.599600000000     0.226600000000    -0.0850532  
N        N      0.757000000000     0.493500000000     0.285800000000    -0.0850532  
N        N      0.901600000000     0.454000000000     0.313100000000    -0.0850532  
N        N      0.273200000000     0.367100000000     0.699800000000    -0.0850532  
N        N      0.083200000000     0.459900000000     0.779400000000    -0.0850532  
N        N      0.094800000000     0.607400000000     0.947500000000    -0.0850532  
N        N      0.148000000000     0.689600000000     0.013500000000    -0.0850532  
N        N      0.293500000000     0.724100000000     0.004600000000    -0.0850532  
N        N      0.341400000000     0.665500000000     0.929800000000    -0.0850532  
N        N      0.579000000000     0.371300000000     0.714000000000    -0.0850532  
N        N      0.730700000000     0.400400000000     0.726600000000    -0.0850532  
N        N      0.743000000000     0.506500000000     0.785800000000    -0.0850532  
N        N      0.598400000000     0.546000000000     0.813100000000    -0.0850532  


