data_GALCAZ_original

_audit_creation_method RASPA-1.0
_audit_creation_date 2022-1-29
_audit_author_name 'Felipe Lopes de Oliveira <felipe.lopes.oliveira@ibm.com>'

_cell_length_a    6.1802
_cell_length_b    23.3127
_cell_length_c    29.4218
_cell_angle_alpha 90
_cell_angle_beta  90
_cell_angle_gamma 95.663
_cell_volume      4218.32

_symmetry_cell_setting          triclinic
_symmetry_space_group_name_Hall 'P 1'
_symmetry_space_group_name_H-M  'P 1'
_symmetry_Int_Tables_number     1

_symmetry_equiv_pos_as_xyz 'x,y,z'

loop_
_atom_site_label
_atom_site_type_symbol
_atom_site_fract_x
_atom_site_fract_y
_atom_site_fract_z
_atom_site_charge
Zn       Zn     0.524530000000     0.730770000000     0.923750000000     0.472043   
Zn       Zn     0.479720000000     0.752740000000     0.539100000000     0.472043   
Zn       Zn     0.475470000000     0.769230000000     0.423750000000     0.472043   
Zn       Zn     0.520280000000     0.747260000000     0.039100000000     0.472043   
Zn       Zn     0.475470000000     0.269230000000     0.076250000000     0.472043   
Zn       Zn     0.520280000000     0.247260000000     0.460900000000     0.472043   
Zn       Zn     0.524530000000     0.230770000000     0.576250000000     0.472043   
Zn       Zn     0.479720000000     0.252740000000     0.960900000000     0.472043   
H        H      0.470400000000     0.710100000000     0.753300000000     0.0681594  
H        H      0.808000000000     0.782700000000     0.760000000000     0.0681594  
H        H      0.996500000000     0.770200000000     0.827400000000     0.0681594  
H        H      0.122200000000     0.714100000000     0.635300000000     0.0681594  
H        H      0.918400000000     0.715000000000     0.569400000000     0.0681594  
H        H      0.499400000000     0.807100000000     0.629200000000     0.0681594  
H        H      0.680400000000     0.805900000000     0.697400000000     0.0681594  
H        H      0.776700000000     0.371800000000     0.977100000000     0.0681594  
H        H      0.214900000000     0.511200000000     0.901600000000     0.0681594  
H        H      0.346000000000     0.422800000000     0.917100000000     0.0681594  
H        H      0.559900000000     0.528600000000     0.964900000000     0.0681594  
H        H      0.426900000000     0.616500000000     0.960300000000     0.0681594  
H        H      0.928800000000     0.678400000000     0.888100000000     0.0681594  
H        H      0.083100000000     0.592200000000     0.892800000000     0.0681594  
H        H      0.983800000000     0.102200000000     0.939200000000     0.0681594  
H        H      0.372100000000     0.945300000000     0.947500000000     0.0681594  
H        H      0.547500000000     0.036600000000     0.958000000000     0.0681594  
H        H      0.703900000000     0.938100000000     0.895100000000     0.0681594  
H        H      0.518100000000     0.848000000000     0.890700000000     0.0681594  
H        H      0.971200000000     0.779600000000     0.959300000000     0.0681594  
H        H      0.169800000000     0.867500000000     0.966000000000     0.0681594  
H        H      0.277000000000     0.716000000000     0.978000000000     0.0681594  
H        H      0.529600000000     0.789900000000     0.253300000000     0.0681594  
H        H      0.192000000000     0.717300000000     0.260000000000     0.0681594  
H        H      0.003500000000     0.729800000000     0.327400000000     0.0681594  
H        H      0.877800000000     0.785900000000     0.135300000000     0.0681594  
H        H      0.081600000000     0.785000000000     0.069400000000     0.0681594  
H        H      0.500600000000     0.692900000000     0.129200000000     0.0681594  
H        H      0.319600000000     0.694100000000     0.197400000000     0.0681594  
H        H      0.223300000000     0.128200000000     0.477100000000     0.0681594  
H        H      0.785100000000     0.988800000000     0.401600000000     0.0681594  
H        H      0.654000000000     0.077200000000     0.417100000000     0.0681594  
H        H      0.440100000000     0.971400000000     0.464900000000     0.0681594  
H        H      0.573100000000     0.883500000000     0.460300000000     0.0681594  
H        H      0.071200000000     0.821600000000     0.388100000000     0.0681594  
H        H      0.916900000000     0.907800000000     0.392800000000     0.0681594  
H        H      0.016200000000     0.397800000000     0.439200000000     0.0681594  
H        H      0.627900000000     0.554700000000     0.447500000000     0.0681594  
H        H      0.452500000000     0.463400000000     0.458000000000     0.0681594  
H        H      0.296100000000     0.561900000000     0.395100000000     0.0681594  
H        H      0.481900000000     0.652000000000     0.390700000000     0.0681594  
H        H      0.028800000000     0.720400000000     0.459300000000     0.0681594  
H        H      0.830200000000     0.632500000000     0.466000000000     0.0681594  
H        H      0.723000000000     0.784000000000     0.478000000000     0.0681594  
H        H      0.529600000000     0.289900000000     0.246700000000     0.0681594  
H        H      0.192000000000     0.217300000000     0.240000000000     0.0681594  
H        H      0.003500000000     0.229800000000     0.172600000000     0.0681594  
H        H      0.877800000000     0.285900000000     0.364700000000     0.0681594  
H        H      0.081600000000     0.285000000000     0.430600000000     0.0681594  
H        H      0.500600000000     0.192900000000     0.370800000000     0.0681594  
H        H      0.319600000000     0.194100000000     0.302600000000     0.0681594  
H        H      0.223300000000     0.628200000000     0.022900000000     0.0681594  
H        H      0.785100000000     0.488800000000     0.098400000000     0.0681594  
H        H      0.654000000000     0.577200000000     0.082900000000     0.0681594  
H        H      0.440100000000     0.471400000000     0.035100000000     0.0681594  
H        H      0.573100000000     0.383500000000     0.039700000000     0.0681594  
H        H      0.071200000000     0.321600000000     0.111900000000     0.0681594  
H        H      0.916900000000     0.407800000000     0.107200000000     0.0681594  
H        H      0.016200000000     0.897800000000     0.060800000000     0.0681594  
H        H      0.627900000000     0.054700000000     0.052500000000     0.0681594  
H        H      0.452500000000     0.963400000000     0.042000000000     0.0681594  
H        H      0.296100000000     0.061900000000     0.104900000000     0.0681594  
H        H      0.481900000000     0.152000000000     0.109300000000     0.0681594  
H        H      0.028800000000     0.220400000000     0.040700000000     0.0681594  
H        H      0.830200000000     0.132500000000     0.034000000000     0.0681594  
H        H      0.723000000000     0.284000000000     0.022000000000     0.0681594  
H        H      0.470400000000     0.210100000000     0.746700000000     0.0681594  
H        H      0.808000000000     0.282700000000     0.740000000000     0.0681594  
H        H      0.996500000000     0.270200000000     0.672600000000     0.0681594  
H        H      0.122200000000     0.214100000000     0.864700000000     0.0681594  
H        H      0.918400000000     0.215000000000     0.930600000000     0.0681594  
H        H      0.499400000000     0.307100000000     0.870800000000     0.0681594  
H        H      0.680400000000     0.305900000000     0.802600000000     0.0681594  
H        H      0.776700000000     0.871800000000     0.522900000000     0.0681594  
H        H      0.214900000000     0.011200000000     0.598400000000     0.0681594  
H        H      0.346000000000     0.922800000000     0.582900000000     0.0681594  
H        H      0.559900000000     0.028600000000     0.535100000000     0.0681594  
H        H      0.426900000000     0.116500000000     0.539700000000     0.0681594  
H        H      0.928800000000     0.178400000000     0.611900000000     0.0681594  
H        H      0.083100000000     0.092200000000     0.607200000000     0.0681594  
H        H      0.983800000000     0.602200000000     0.560800000000     0.0681594  
H        H      0.372100000000     0.445300000000     0.552500000000     0.0681594  
H        H      0.547500000000     0.536600000000     0.542000000000     0.0681594  
H        H      0.703900000000     0.438100000000     0.604900000000     0.0681594  
H        H      0.518100000000     0.348000000000     0.609300000000     0.0681594  
H        H      0.971200000000     0.279600000000     0.540700000000     0.0681594  
H        H      0.169800000000     0.367500000000     0.534000000000     0.0681594  
H        H      0.277000000000     0.216000000000     0.522000000000     0.0681594  
C        C      0.393600000000     0.734600000000     0.838900000000     0.0263269  
C        C      0.257400000000     0.740000000000     0.797600000000     0.0263269  
C        C      0.332900000000     0.725000000000     0.754900000000     0.0263269  
C        C      0.034100000000     0.752100000000     0.719300000000     0.0263269  
C        C      0.945100000000     0.767500000000     0.759500000000     0.0263269  
C        C      0.057300000000     0.760700000000     0.799100000000     0.0263269  
C        C      0.920100000000     0.757200000000     0.675200000000     0.0263269  
C        C      0.990800000000     0.732000000000     0.635200000000     0.0263269  
C        C      0.869900000000     0.733300000000     0.595850000000     0.0263269  
C        C      0.624500000000     0.786600000000     0.631000000000     0.0263269  
C        C      0.732100000000     0.786500000000     0.671800000000     0.0263269  
C        C      0.156300000000     0.331900000000     0.963500000000     0.0263269  
C        C      0.076900000000     0.388700000000     0.950710000000     0.0263269  
C        C      0.870500000000     0.401300000000     0.963000000000     0.0263269  
C        C      0.926900000000     0.493000000000     0.934700000000     0.0263269  
C        C      0.129500000000     0.482600000000     0.918500000000     0.0263269  
C        C      0.205500000000     0.430300000000     0.927200000000     0.0263269  
C        C      0.839000000000     0.550000000000     0.929900000000     0.0263269  
C        C      0.641200000000     0.559200000000     0.949200000000     0.0263269  
C        C      0.561400000000     0.611400000000     0.946000000000     0.0263269  
C        C      0.853700000000     0.647400000000     0.904400000000     0.0263269  
C        C      0.946700000000     0.595900000000     0.906800000000     0.0263269  
C        C      0.399200000000     0.138600000000     0.957800000000     0.0263269  
C        C      0.282000000000     0.079500000000     0.950700000000     0.0263269  
C        C      0.065700000000     0.069900000000     0.941000000000     0.0263269  
C        C      0.077200000000     0.971500000000     0.938000000000     0.0263269  
C        C      0.292300000000     0.978000000000     0.946100000000     0.0263269  
C        C      0.395400000000     0.032000000000     0.952400000000     0.0263269  
C        C      0.959000000000     0.913300000000     0.932400000000     0.0263269  
C        C      0.761700000000     0.906100000000     0.909000000000     0.0263269  
C        C      0.653200000000     0.852200000000     0.906300000000     0.0263269  
C        C      0.916000000000     0.812400000000     0.946200000000     0.0263269  
C        C      0.034500000000     0.864700000000     0.950400000000     0.0263269  
C        C      0.606400000000     0.765400000000     0.338900000000     0.0263269  
C        C      0.742600000000     0.760000000000     0.297600000000     0.0263269  
C        C      0.667100000000     0.775000000000     0.254900000000     0.0263269  
C        C      0.965900000000     0.747900000000     0.219300000000     0.0263269  
C        C      0.054900000000     0.732500000000     0.259500000000     0.0263269  
C        C      0.942700000000     0.739300000000     0.299100000000     0.0263269  
C        C      0.079900000000     0.742800000000     0.175200000000     0.0263269  
C        C      0.009200000000     0.768000000000     0.135200000000     0.0263269  
C        C      0.130100000000     0.766700000000     0.095850000000     0.0263269  
C        C      0.375500000000     0.713400000000     0.131000000000     0.0263269  
C        C      0.267900000000     0.713500000000     0.171800000000     0.0263269  
C        C      0.843700000000     0.168100000000     0.463500000000     0.0263269  
C        C      0.923100000000     0.111300000000     0.450710000000     0.0263269  
C        C      0.129500000000     0.098700000000     0.463000000000     0.0263269  
C        C      0.073100000000     0.007000000000     0.434700000000     0.0263269  
C        C      0.870500000000     0.017400000000     0.418500000000     0.0263269  
C        C      0.794500000000     0.069700000000     0.427200000000     0.0263269  
C        C      0.161000000000     0.950000000000     0.429900000000     0.0263269  
C        C      0.358800000000     0.940800000000     0.449200000000     0.0263269  
C        C      0.438600000000     0.888600000000     0.446000000000     0.0263269  
C        C      0.146300000000     0.852600000000     0.404400000000     0.0263269  
C        C      0.053300000000     0.904100000000     0.406800000000     0.0263269  
C        C      0.600800000000     0.361400000000     0.457800000000     0.0263269  
C        C      0.718000000000     0.420500000000     0.450700000000     0.0263269  
C        C      0.934300000000     0.430100000000     0.441000000000     0.0263269  
C        C      0.922800000000     0.528500000000     0.438000000000     0.0263269  
C        C      0.707700000000     0.522000000000     0.446100000000     0.0263269  
C        C      0.604600000000     0.468000000000     0.452400000000     0.0263269  
C        C      0.041000000000     0.586700000000     0.432400000000     0.0263269  
C        C      0.238300000000     0.593900000000     0.409000000000     0.0263269  
C        C      0.346800000000     0.647800000000     0.406300000000     0.0263269  
C        C      0.084000000000     0.687600000000     0.446200000000     0.0263269  
C        C      0.965500000000     0.635300000000     0.450400000000     0.0263269  
C        C      0.606400000000     0.265400000000     0.161100000000     0.0263269  
C        C      0.742600000000     0.260000000000     0.202400000000     0.0263269  
C        C      0.667100000000     0.275000000000     0.245100000000     0.0263269  
C        C      0.965900000000     0.247900000000     0.280700000000     0.0263269  
C        C      0.054900000000     0.232500000000     0.240500000000     0.0263269  
C        C      0.942700000000     0.239300000000     0.200900000000     0.0263269  
C        C      0.079900000000     0.242800000000     0.324800000000     0.0263269  
C        C      0.009200000000     0.268000000000     0.364800000000     0.0263269  
C        C      0.130100000000     0.266700000000     0.404150000000     0.0263269  
C        C      0.375500000000     0.213400000000     0.369000000000     0.0263269  
C        C      0.267900000000     0.213500000000     0.328200000000     0.0263269  
C        C      0.843700000000     0.668100000000     0.036500000000     0.0263269  
C        C      0.923100000000     0.611300000000     0.049290000000     0.0263269  
C        C      0.129500000000     0.598700000000     0.037000000000     0.0263269  
C        C      0.073100000000     0.507000000000     0.065300000000     0.0263269  
C        C      0.870500000000     0.517400000000     0.081500000000     0.0263269  
C        C      0.794500000000     0.569700000000     0.072800000000     0.0263269  
C        C      0.161000000000     0.450000000000     0.070100000000     0.0263269  
C        C      0.358800000000     0.440800000000     0.050800000000     0.0263269  
C        C      0.438600000000     0.388600000000     0.054000000000     0.0263269  
C        C      0.146300000000     0.352600000000     0.095600000000     0.0263269  
C        C      0.053300000000     0.404100000000     0.093200000000     0.0263269  
C        C      0.600800000000     0.861400000000     0.042200000000     0.0263269  
C        C      0.718000000000     0.920500000000     0.049300000000     0.0263269  
C        C      0.934300000000     0.930100000000     0.059000000000     0.0263269  
C        C      0.922800000000     0.028500000000     0.062000000000     0.0263269  
C        C      0.707700000000     0.022000000000     0.053900000000     0.0263269  
C        C      0.604600000000     0.968000000000     0.047600000000     0.0263269  
C        C      0.041000000000     0.086700000000     0.067600000000     0.0263269  
C        C      0.238300000000     0.093900000000     0.091000000000     0.0263269  
C        C      0.346800000000     0.147800000000     0.093700000000     0.0263269  
C        C      0.084000000000     0.187600000000     0.053800000000     0.0263269  
C        C      0.965500000000     0.135300000000     0.049600000000     0.0263269  
C        C      0.393600000000     0.234600000000     0.661100000000     0.0263269  
C        C      0.257400000000     0.240000000000     0.702400000000     0.0263269  
C        C      0.332900000000     0.225000000000     0.745100000000     0.0263269  
C        C      0.034100000000     0.252100000000     0.780700000000     0.0263269  
C        C      0.945100000000     0.267500000000     0.740500000000     0.0263269  
C        C      0.057300000000     0.260700000000     0.700900000000     0.0263269  
C        C      0.920100000000     0.257200000000     0.824800000000     0.0263269  
C        C      0.990800000000     0.232000000000     0.864800000000     0.0263269  
C        C      0.869900000000     0.233300000000     0.904150000000     0.0263269  
C        C      0.624500000000     0.286600000000     0.869000000000     0.0263269  
C        C      0.732100000000     0.286500000000     0.828200000000     0.0263269  
C        C      0.156300000000     0.831900000000     0.536500000000     0.0263269  
C        C      0.076900000000     0.888700000000     0.549290000000     0.0263269  
C        C      0.870500000000     0.901300000000     0.537000000000     0.0263269  
C        C      0.926900000000     0.993000000000     0.565300000000     0.0263269  
C        C      0.129500000000     0.982600000000     0.581500000000     0.0263269  
C        C      0.205500000000     0.930300000000     0.572800000000     0.0263269  
C        C      0.839000000000     0.050000000000     0.570100000000     0.0263269  
C        C      0.641200000000     0.059200000000     0.550800000000     0.0263269  
C        C      0.561400000000     0.111400000000     0.554000000000     0.0263269  
C        C      0.853700000000     0.147400000000     0.595600000000     0.0263269  
C        C      0.946700000000     0.095900000000     0.593200000000     0.0263269  
C        C      0.399200000000     0.638600000000     0.542200000000     0.0263269  
C        C      0.282000000000     0.579500000000     0.549300000000     0.0263269  
C        C      0.065700000000     0.569900000000     0.559000000000     0.0263269  
C        C      0.077200000000     0.471500000000     0.562000000000     0.0263269  
C        C      0.292300000000     0.478000000000     0.553900000000     0.0263269  
C        C      0.395400000000     0.532000000000     0.547600000000     0.0263269  
C        C      0.959000000000     0.413300000000     0.567600000000     0.0263269  
C        C      0.761700000000     0.406100000000     0.591000000000     0.0263269  
C        C      0.653200000000     0.352200000000     0.593700000000     0.0263269  
C        C      0.916000000000     0.312400000000     0.553800000000     0.0263269  
C        C      0.034500000000     0.364700000000     0.549600000000     0.0263269  
N        N      0.225400000000     0.730100000000     0.716900000000    -0.149745   
N        N      0.685300000000     0.759600000000     0.593680000000    -0.149745   
N        N      0.795500000000     0.452300000000     0.956060000000    -0.149745   
N        N      0.664700000000     0.655800000000     0.923580000000    -0.149745   
N        N      0.962500000000     0.017600000000     0.933900000000    -0.149745   
N        N      0.725500000000     0.805200000000     0.924240000000    -0.149745   
N        N      0.774600000000     0.769900000000     0.216900000000    -0.149745   
N        N      0.314700000000     0.740400000000     0.093680000000    -0.149745   
N        N      0.204500000000     0.047700000000     0.456060000000    -0.149745   
N        N      0.335300000000     0.844200000000     0.423580000000    -0.149745   
N        N      0.037500000000     0.482400000000     0.433900000000    -0.149745   
N        N      0.274500000000     0.694800000000     0.424240000000    -0.149745   
N        N      0.774600000000     0.269900000000     0.283100000000    -0.149745   
N        N      0.314700000000     0.240400000000     0.406320000000    -0.149745   
N        N      0.204500000000     0.547700000000     0.043940000000    -0.149745   
N        N      0.335300000000     0.344200000000     0.076420000000    -0.149745   
N        N      0.037500000000     0.982400000000     0.066100000000    -0.149745   
N        N      0.274500000000     0.194800000000     0.075760000000    -0.149745   
N        N      0.225400000000     0.230100000000     0.783100000000    -0.149745   
N        N      0.685300000000     0.259600000000     0.906320000000    -0.149745   
N        N      0.795500000000     0.952300000000     0.543940000000    -0.149745   
N        N      0.664700000000     0.155800000000     0.576420000000    -0.149745   
N        N      0.962500000000     0.517600000000     0.566100000000    -0.149745   
N        N      0.725500000000     0.305200000000     0.575760000000    -0.149745   
O        O      0.300600000000     0.739600000000     0.877200000000    -0.344844   
O        O      0.587700000000     0.726000000000     0.834960000000    -0.344844   
O        O      0.055000000000     0.301110000000     0.992120000000    -0.344844   
O        O      0.328400000000     0.320130000000     0.943330000000    -0.344844   
O        O      0.286400000000     0.181450000000     0.951880000000    -0.344844   
O        O      0.592800000000     0.143100000000     0.968150000000    -0.344844   
O        O      0.382900000000     0.728500000000     0.982000000000    -0.344844   
O        O      0.699400000000     0.760400000000     0.377200000000    -0.344844   
O        O      0.412300000000     0.774000000000     0.334960000000    -0.344844   
O        O      0.945000000000     0.198890000000     0.492120000000    -0.344844   
O        O      0.671600000000     0.179870000000     0.443330000000    -0.344844   
O        O      0.713600000000     0.318550000000     0.451880000000    -0.344844   
O        O      0.407200000000     0.356900000000     0.468150000000    -0.344844   
O        O      0.617100000000     0.771500000000     0.482000000000    -0.344844   
O        O      0.699400000000     0.260400000000     0.122800000000    -0.344844   
O        O      0.412300000000     0.274000000000     0.165040000000    -0.344844   
O        O      0.945000000000     0.698890000000     0.007880000000    -0.344844   
O        O      0.671600000000     0.679870000000     0.056670000000    -0.344844   
O        O      0.713600000000     0.818550000000     0.048120000000    -0.344844   
O        O      0.407200000000     0.856900000000     0.031850000000    -0.344844   
O        O      0.617100000000     0.271500000000     0.018000000000    -0.344844   
O        O      0.300600000000     0.239600000000     0.622800000000    -0.344844   
O        O      0.587700000000     0.226000000000     0.665040000000    -0.344844   
O        O      0.055000000000     0.801110000000     0.507880000000    -0.344844   
O        O      0.328400000000     0.820130000000     0.556670000000    -0.344844   
O        O      0.286400000000     0.681450000000     0.548120000000    -0.344844   
O        O      0.592800000000     0.643100000000     0.531850000000    -0.344844   
O        O      0.382900000000     0.228500000000     0.518000000000    -0.344844   


