data_GAXVUY_original

_audit_creation_method RASPA-1.0
_audit_creation_date 2022-1-28
_audit_author_name 'Felipe Lopes de Oliveira <felipe.lopes.oliveira@ibm.com>'

_cell_length_a    10.311
_cell_length_b    14.3666
_cell_length_c    18.4014
_cell_angle_alpha 90
_cell_angle_beta  90
_cell_angle_gamma 99.825
_cell_volume      2685.89

_symmetry_cell_setting          triclinic
_symmetry_space_group_name_Hall 'P 1'
_symmetry_space_group_name_H-M  'P 1'
_symmetry_Int_Tables_number     1

_symmetry_equiv_pos_as_xyz 'x,y,z'

loop_
_atom_site_label
_atom_site_type_symbol
_atom_site_fract_x
_atom_site_fract_y
_atom_site_fract_z
_atom_site_charge
Ca       Ca     0.623670000000     0.821100000000     0.308150000000     1.28194    
Ca       Ca     0.876330000000     0.678900000000     0.808150000000     1.28194    
Ca       Ca     0.376330000000     0.178900000000     0.691850000000     1.28194    
Ca       Ca     0.123670000000     0.321100000000     0.191850000000     1.28194    
Zn       Zn     0.707410000000     0.053020000000     0.186170000000     0.491052   
Zn       Zn     0.792590000000     0.446980000000     0.686170000000     0.491052   
Zn       Zn     0.292590000000     0.946980000000     0.813830000000     0.491052   
Zn       Zn     0.207410000000     0.553020000000     0.313830000000     0.491052   
H        H      0.603300000000     0.012900000000     0.474000000000     0.040351   
H        H      0.591700000000     0.101200000000     0.577500000000     0.040351   
H        H      0.755900000000     0.332800000000     0.470300000000     0.040351   
H        H      0.752400000000     0.246200000000     0.364700000000     0.040351   
H        H      0.054900000000     0.827600000000     0.280400000000     0.040351   
H        H      0.277400000000     0.828400000000     0.268000000000     0.040351   
H        H      0.297000000000     0.036500000000     0.121800000000     0.040351   
H        H      0.073200000000     0.031600000000     0.131300000000     0.040351   
H        H      0.896700000000     0.487100000000     0.974000000000     0.040351   
H        H      0.908300000000     0.398800000000     0.077500000000     0.040351   
H        H      0.744100000000     0.167200000000     0.970300000000     0.040351   
H        H      0.747600000000     0.253800000000     0.864700000000     0.040351   
H        H      0.445100000000     0.672400000000     0.780400000000     0.040351   
H        H      0.222600000000     0.671600000000     0.768000000000     0.040351   
H        H      0.203000000000     0.463500000000     0.621800000000     0.040351   
H        H      0.426800000000     0.468400000000     0.631300000000     0.040351   
H        H      0.396700000000     0.987100000000     0.526000000000     0.040351   
H        H      0.408300000000     0.898800000000     0.422500000000     0.040351   
H        H      0.244100000000     0.667200000000     0.529700000000     0.040351   
H        H      0.247600000000     0.753800000000     0.635300000000     0.040351   
H        H      0.945100000000     0.172400000000     0.719600000000     0.040351   
H        H      0.722600000000     0.171600000000     0.732000000000     0.040351   
H        H      0.703000000000     0.963500000000     0.878200000000     0.040351   
H        H      0.926800000000     0.968400000000     0.868700000000     0.040351   
H        H      0.103300000000     0.512900000000     0.026000000000     0.040351   
H        H      0.091700000000     0.601200000000     0.922500000000     0.040351   
H        H      0.255900000000     0.832800000000     0.029700000000     0.040351   
H        H      0.252400000000     0.746200000000     0.135300000000     0.040351   
H        H      0.554900000000     0.327600000000     0.219600000000     0.040351   
H        H      0.777400000000     0.328400000000     0.232000000000     0.040351   
H        H      0.797000000000     0.536500000000     0.378200000000     0.040351   
H        H      0.573200000000     0.531600000000     0.368700000000     0.040351   
C        C      0.675600000000     0.120700000000     0.408000000000     0.0602747  
C        C      0.630700000000     0.078000000000     0.472500000000     0.0602747  
C        C      0.625900000000     0.130700000000     0.535000000000     0.0602747  
C        C      0.671500000000     0.226600000000     0.534800000000     0.0602747  
C        C      0.721600000000     0.268600000000     0.470900000000     0.0602747  
C        C      0.721400000000     0.216400000000     0.407700000000     0.0602747  
C        C      0.670900000000     0.063000000000     0.340200000000     0.0602747  
C        C      0.667700000000     0.283200000000     0.603200000000     0.0602747  
C        C      0.041800000000     0.930100000000     0.207900000000     0.0602747  
C        C      0.103700000000     0.869500000000     0.248100000000     0.0602747  
C        C      0.237200000000     0.870300000000     0.241000000000     0.0602747  
C        C      0.311100000000     0.933000000000     0.194000000000     0.0602747  
C        C      0.248200000000     0.993800000000     0.153500000000     0.0602747  
C        C      0.114400000000     0.991700000000     0.159600000000     0.0602747  
C        C      0.895900000000     0.931000000000     0.216600000000     0.0602747  
C        C      0.457200000000     0.937100000000     0.189200000000     0.0602747  
C        C      0.824400000000     0.379300000000     0.908000000000     0.0602747  
C        C      0.869300000000     0.422000000000     0.972500000000     0.0602747  
C        C      0.874100000000     0.369300000000     0.035000000000     0.0602747  
C        C      0.828500000000     0.273400000000     0.034800000000     0.0602747  
C        C      0.778400000000     0.231400000000     0.970900000000     0.0602747  
C        C      0.778600000000     0.283600000000     0.907700000000     0.0602747  
C        C      0.829100000000     0.437000000000     0.840200000000     0.0602747  
C        C      0.832300000000     0.216800000000     0.103200000000     0.0602747  
C        C      0.458200000000     0.569900000000     0.707900000000     0.0602747  
C        C      0.396300000000     0.630500000000     0.748100000000     0.0602747  
C        C      0.262800000000     0.629700000000     0.741000000000     0.0602747  
C        C      0.188900000000     0.567000000000     0.694000000000     0.0602747  
C        C      0.251800000000     0.506200000000     0.653500000000     0.0602747  
C        C      0.385600000000     0.508300000000     0.659600000000     0.0602747  
C        C      0.604100000000     0.569000000000     0.716600000000     0.0602747  
C        C      0.042800000000     0.562900000000     0.689200000000     0.0602747  
C        C      0.324400000000     0.879300000000     0.592000000000     0.0602747  
C        C      0.369300000000     0.922000000000     0.527500000000     0.0602747  
C        C      0.374100000000     0.869300000000     0.465000000000     0.0602747  
C        C      0.328500000000     0.773400000000     0.465200000000     0.0602747  
C        C      0.278400000000     0.731400000000     0.529100000000     0.0602747  
C        C      0.278600000000     0.783600000000     0.592300000000     0.0602747  
C        C      0.329100000000     0.937000000000     0.659800000000     0.0602747  
C        C      0.332300000000     0.716800000000     0.396800000000     0.0602747  
C        C      0.958200000000     0.069900000000     0.792100000000     0.0602747  
C        C      0.896300000000     0.130500000000     0.751900000000     0.0602747  
C        C      0.762800000000     0.129700000000     0.759000000000     0.0602747  
C        C      0.688900000000     0.067000000000     0.806000000000     0.0602747  
C        C      0.751800000000     0.006200000000     0.846500000000     0.0602747  
C        C      0.885600000000     0.008300000000     0.840400000000     0.0602747  
C        C      0.104100000000     0.069000000000     0.783400000000     0.0602747  
C        C      0.542800000000     0.062900000000     0.810800000000     0.0602747  
C        C      0.175600000000     0.620700000000     0.092000000000     0.0602747  
C        C      0.130700000000     0.578000000000     0.027500000000     0.0602747  
C        C      0.125900000000     0.630700000000     0.965000000000     0.0602747  
C        C      0.171500000000     0.726600000000     0.965200000000     0.0602747  
C        C      0.221600000000     0.768600000000     0.029100000000     0.0602747  
C        C      0.221400000000     0.716400000000     0.092300000000     0.0602747  
C        C      0.170900000000     0.563000000000     0.159800000000     0.0602747  
C        C      0.167700000000     0.783200000000     0.896800000000     0.0602747  
C        C      0.541800000000     0.430100000000     0.292100000000     0.0602747  
C        C      0.603700000000     0.369500000000     0.251900000000     0.0602747  
C        C      0.737200000000     0.370300000000     0.259000000000     0.0602747  
C        C      0.811100000000     0.433000000000     0.306000000000     0.0602747  
C        C      0.748200000000     0.493800000000     0.346500000000     0.0602747  
C        C      0.614400000000     0.491700000000     0.340400000000     0.0602747  
C        C      0.395900000000     0.431000000000     0.283400000000     0.0602747  
C        C      0.957200000000     0.437100000000     0.310800000000     0.0602747  
O        O      0.709800000000     0.107600000000     0.282980000000    -0.382524   
O        O      0.627300000000     0.977200000000     0.343570000000    -0.382524   
O        O      0.758100000000     0.354300000000     0.608080000000    -0.382524   
O        O      0.581900000000     0.257100000000     0.649300000000    -0.382524   
O        O      0.846200000000     0.980700000000     0.171320000000    -0.382524   
O        O      0.836700000000     0.885200000000     0.267300000000    -0.382524   
O        O      0.522700000000     0.011500000000     0.161350000000    -0.382524   
O        O      0.506400000000     0.870400000000     0.213330000000    -0.382524   
O        O      0.790200000000     0.392400000000     0.782980000000    -0.382524   
O        O      0.872700000000     0.522800000000     0.843570000000    -0.382524   
O        O      0.741900000000     0.145700000000     0.108080000000    -0.382524   
O        O      0.918100000000     0.242900000000     0.149300000000    -0.382524   
O        O      0.653800000000     0.519300000000     0.671320000000    -0.382524   
O        O      0.663300000000     0.614800000000     0.767300000000    -0.382524   
O        O      0.977300000000     0.488500000000     0.661350000000    -0.382524   
O        O      0.993600000000     0.629600000000     0.713330000000    -0.382524   
O        O      0.290200000000     0.892400000000     0.717020000000    -0.382524   
O        O      0.372700000000     0.022800000000     0.656430000000    -0.382524   
O        O      0.241900000000     0.645700000000     0.391920000000    -0.382524   
O        O      0.418100000000     0.742900000000     0.350700000000    -0.382524   
O        O      0.153800000000     0.019300000000     0.828680000000    -0.382524   
O        O      0.163300000000     0.114800000000     0.732700000000    -0.382524   
O        O      0.477300000000     0.988500000000     0.838650000000    -0.382524   
O        O      0.493600000000     0.129600000000     0.786670000000    -0.382524   
O        O      0.209800000000     0.607600000000     0.217020000000    -0.382524   
O        O      0.127300000000     0.477200000000     0.156430000000    -0.382524   
O        O      0.258100000000     0.854300000000     0.891920000000    -0.382524   
O        O      0.081900000000     0.757100000000     0.850700000000    -0.382524   
O        O      0.346200000000     0.480700000000     0.328680000000    -0.382524   
O        O      0.336700000000     0.385200000000     0.232700000000    -0.382524   
O        O      0.022700000000     0.511500000000     0.338650000000    -0.382524   
O        O      0.006400000000     0.370400000000     0.286670000000    -0.382524   


