data_GELJAJ_original

_audit_creation_method RASPA-1.0
_audit_creation_date 2022-1-30
_audit_author_name 'Felipe Lopes de Oliveira <felipe.lopes.oliveira@ibm.com>'

_cell_length_a    9.5232
_cell_length_b    15.846
_cell_length_c    22.369
_cell_angle_alpha 90
_cell_angle_beta  90
_cell_angle_gamma 90
_cell_volume      3375.59

_symmetry_cell_setting          triclinic
_symmetry_space_group_name_Hall 'P 1'
_symmetry_space_group_name_H-M  'P 1'
_symmetry_Int_Tables_number     1

_symmetry_equiv_pos_as_xyz 'x,y,z'

loop_
_atom_site_label
_atom_site_type_symbol
_atom_site_fract_x
_atom_site_fract_y
_atom_site_fract_z
_atom_site_charge
Zn       Zn     0.809530000000     0.311740000000     0.513660000000     0.434014   
Zn       Zn     0.690470000000     0.688260000000     0.013660000000     0.434014   
Zn       Zn     0.190470000000     0.811740000000     0.986340000000     0.434014   
Zn       Zn     0.309530000000     0.188260000000     0.486340000000     0.434014   
Zn       Zn     0.190470000000     0.688260000000     0.486340000000     0.434014   
Zn       Zn     0.309530000000     0.311740000000     0.986340000000     0.434014   
Zn       Zn     0.809530000000     0.188260000000     0.013660000000     0.434014   
Zn       Zn     0.690470000000     0.811740000000     0.513660000000     0.434014   
H        H      0.800000000000     0.492000000000     0.490800000000     0.0964188  
H        H      0.667000000000     0.590000000000     0.440000000000     0.0964188  
H        H      0.412000000000     0.414000000000     0.395400000000     0.0964188  
H        H      0.557000000000     0.321000000000     0.445000000000     0.0964188  
H        H      0.444000000000     0.633000000000     0.389800000000     0.0964188  
H        H      0.358000000000     0.552000000000     0.366700000000     0.0964188  
H        H      0.589000000000     0.604000000000     0.313000000000     0.0964188  
H        H      0.515000000000     0.514000000000     0.290000000000     0.0964188  
H        H      0.386000000000     0.674000000000     0.286000000000     0.0964188  
H        H      0.309000000000     0.603000000000     0.265500000000     0.0964188  
H        H      0.410000000000     0.530000000000     0.166700000000     0.0964188  
H        H      0.523000000000     0.551000000000     0.075200000000     0.0964188  
H        H      0.672000000000     0.768000000000     0.126600000000     0.0964188  
H        H      0.552000000000     0.762000000000     0.223200000000     0.0964188  
H        H      0.700000000000     0.508000000000     0.990800000000     0.0964188  
H        H      0.833000000000     0.410000000000     0.940000000000     0.0964188  
H        H      0.088000000000     0.586000000000     0.895400000000     0.0964188  
H        H      0.943000000000     0.679000000000     0.945000000000     0.0964188  
H        H      0.056000000000     0.367000000000     0.889800000000     0.0964188  
H        H      0.142000000000     0.448000000000     0.866700000000     0.0964188  
H        H      0.911000000000     0.396000000000     0.813000000000     0.0964188  
H        H      0.985000000000     0.486000000000     0.790000000000     0.0964188  
H        H      0.114000000000     0.326000000000     0.786000000000     0.0964188  
H        H      0.191000000000     0.397000000000     0.765500000000     0.0964188  
H        H      0.090000000000     0.470000000000     0.666700000000     0.0964188  
H        H      0.977000000000     0.449000000000     0.575200000000     0.0964188  
H        H      0.828000000000     0.232000000000     0.626600000000     0.0964188  
H        H      0.948000000000     0.238000000000     0.723200000000     0.0964188  
H        H      0.200000000000     0.992000000000     0.009200000000     0.0964188  
H        H      0.333000000000     0.090000000000     0.060000000000     0.0964188  
H        H      0.588000000000     0.914000000000     0.104600000000     0.0964188  
H        H      0.443000000000     0.821000000000     0.055000000000     0.0964188  
H        H      0.556000000000     0.133000000000     0.110200000000     0.0964188  
H        H      0.642000000000     0.052000000000     0.133300000000     0.0964188  
H        H      0.411000000000     0.104000000000     0.187000000000     0.0964188  
H        H      0.485000000000     0.014000000000     0.210000000000     0.0964188  
H        H      0.614000000000     0.174000000000     0.214000000000     0.0964188  
H        H      0.691000000000     0.103000000000     0.234500000000     0.0964188  
H        H      0.590000000000     0.030000000000     0.333300000000     0.0964188  
H        H      0.477000000000     0.051000000000     0.424800000000     0.0964188  
H        H      0.328000000000     0.268000000000     0.373400000000     0.0964188  
H        H      0.448000000000     0.262000000000     0.276800000000     0.0964188  
H        H      0.300000000000     0.008000000000     0.509200000000     0.0964188  
H        H      0.167000000000     0.910000000000     0.560000000000     0.0964188  
H        H      0.912000000000     0.086000000000     0.604600000000     0.0964188  
H        H      0.057000000000     0.179000000000     0.555000000000     0.0964188  
H        H      0.944000000000     0.867000000000     0.610200000000     0.0964188  
H        H      0.858000000000     0.948000000000     0.633300000000     0.0964188  
H        H      0.089000000000     0.896000000000     0.687000000000     0.0964188  
H        H      0.015000000000     0.986000000000     0.710000000000     0.0964188  
H        H      0.886000000000     0.826000000000     0.714000000000     0.0964188  
H        H      0.809000000000     0.897000000000     0.734500000000     0.0964188  
H        H      0.910000000000     0.970000000000     0.833300000000     0.0964188  
H        H      0.023000000000     0.949000000000     0.924800000000     0.0964188  
H        H      0.172000000000     0.732000000000     0.873400000000     0.0964188  
H        H      0.052000000000     0.738000000000     0.776800000000     0.0964188  
H        H      0.200000000000     0.508000000000     0.509200000000     0.0964188  
H        H      0.333000000000     0.410000000000     0.560000000000     0.0964188  
H        H      0.588000000000     0.586000000000     0.604600000000     0.0964188  
H        H      0.443000000000     0.679000000000     0.555000000000     0.0964188  
H        H      0.556000000000     0.367000000000     0.610200000000     0.0964188  
H        H      0.642000000000     0.448000000000     0.633300000000     0.0964188  
H        H      0.411000000000     0.396000000000     0.687000000000     0.0964188  
H        H      0.485000000000     0.486000000000     0.710000000000     0.0964188  
H        H      0.614000000000     0.326000000000     0.714000000000     0.0964188  
H        H      0.691000000000     0.397000000000     0.734500000000     0.0964188  
H        H      0.590000000000     0.470000000000     0.833300000000     0.0964188  
H        H      0.477000000000     0.449000000000     0.924800000000     0.0964188  
H        H      0.328000000000     0.232000000000     0.873400000000     0.0964188  
H        H      0.448000000000     0.238000000000     0.776800000000     0.0964188  
H        H      0.300000000000     0.492000000000     0.009200000000     0.0964188  
H        H      0.167000000000     0.590000000000     0.060000000000     0.0964188  
H        H      0.912000000000     0.414000000000     0.104600000000     0.0964188  
H        H      0.057000000000     0.321000000000     0.055000000000     0.0964188  
H        H      0.944000000000     0.633000000000     0.110200000000     0.0964188  
H        H      0.858000000000     0.552000000000     0.133300000000     0.0964188  
H        H      0.089000000000     0.604000000000     0.187000000000     0.0964188  
H        H      0.015000000000     0.514000000000     0.210000000000     0.0964188  
H        H      0.886000000000     0.674000000000     0.214000000000     0.0964188  
H        H      0.809000000000     0.603000000000     0.234500000000     0.0964188  
H        H      0.910000000000     0.530000000000     0.333300000000     0.0964188  
H        H      0.023000000000     0.551000000000     0.424800000000     0.0964188  
H        H      0.172000000000     0.768000000000     0.373400000000     0.0964188  
H        H      0.052000000000     0.762000000000     0.276800000000     0.0964188  
H        H      0.800000000000     0.008000000000     0.990800000000     0.0964188  
H        H      0.667000000000     0.910000000000     0.940000000000     0.0964188  
H        H      0.412000000000     0.086000000000     0.895400000000     0.0964188  
H        H      0.557000000000     0.179000000000     0.945000000000     0.0964188  
H        H      0.444000000000     0.867000000000     0.889800000000     0.0964188  
H        H      0.358000000000     0.948000000000     0.866700000000     0.0964188  
H        H      0.589000000000     0.896000000000     0.813000000000     0.0964188  
H        H      0.515000000000     0.986000000000     0.790000000000     0.0964188  
H        H      0.386000000000     0.826000000000     0.786000000000     0.0964188  
H        H      0.309000000000     0.897000000000     0.765500000000     0.0964188  
H        H      0.410000000000     0.970000000000     0.666700000000     0.0964188  
H        H      0.523000000000     0.949000000000     0.575200000000     0.0964188  
H        H      0.672000000000     0.732000000000     0.626600000000     0.0964188  
H        H      0.552000000000     0.738000000000     0.723200000000     0.0964188  
H        H      0.700000000000     0.992000000000     0.490800000000     0.0964188  
H        H      0.833000000000     0.090000000000     0.440000000000     0.0964188  
H        H      0.088000000000     0.914000000000     0.395400000000     0.0964188  
H        H      0.943000000000     0.821000000000     0.445000000000     0.0964188  
H        H      0.056000000000     0.133000000000     0.389800000000     0.0964188  
H        H      0.142000000000     0.052000000000     0.366700000000     0.0964188  
H        H      0.911000000000     0.104000000000     0.313000000000     0.0964188  
H        H      0.985000000000     0.014000000000     0.290000000000     0.0964188  
H        H      0.114000000000     0.174000000000     0.286000000000     0.0964188  
H        H      0.191000000000     0.103000000000     0.265500000000     0.0964188  
H        H      0.090000000000     0.030000000000     0.166700000000     0.0964188  
H        H      0.977000000000     0.051000000000     0.075200000000     0.0964188  
H        H      0.828000000000     0.268000000000     0.126600000000     0.0964188  
H        H      0.948000000000     0.262000000000     0.223200000000     0.0964188  
C        C      0.723800000000     0.480900000000     0.471200000000    -0.0548511  
C        C      0.645900000000     0.538800000000     0.439080000000    -0.0548511  
C        C      0.528100000000     0.514000000000     0.408740000000    -0.0548511  
C        C      0.493000000000     0.430100000000     0.413100000000    -0.0548511  
C        C      0.573900000000     0.375800000000     0.445750000000    -0.0548511  
C        C      0.445100000000     0.573700000000     0.370880000000    -0.0548511  
C        C      0.504400000000     0.578200000000     0.307390000000    -0.0548511  
C        C      0.408100000000     0.628100000000     0.265680000000    -0.0548511  
C        C      0.475900000000     0.639800000000     0.204900000000    -0.0548511  
C        C      0.469200000000     0.578400000000     0.161120000000    -0.0548511  
C        C      0.533700000000     0.591500000000     0.106690000000    -0.0548511  
C        C      0.614400000000     0.720000000000     0.137390000000    -0.0548511  
C        C      0.550300000000     0.712000000000     0.192030000000    -0.0548511  
C        C      0.776200000000     0.519100000000     0.971200000000    -0.0548511  
C        C      0.854100000000     0.461200000000     0.939080000000    -0.0548511  
C        C      0.971900000000     0.486000000000     0.908740000000    -0.0548511  
C        C      0.007000000000     0.569900000000     0.913100000000    -0.0548511  
C        C      0.926100000000     0.624200000000     0.945750000000    -0.0548511  
C        C      0.054900000000     0.426300000000     0.870880000000    -0.0548511  
C        C      0.995600000000     0.421800000000     0.807390000000    -0.0548511  
C        C      0.091900000000     0.371900000000     0.765680000000    -0.0548511  
C        C      0.024100000000     0.360200000000     0.704900000000    -0.0548511  
C        C      0.030800000000     0.421600000000     0.661120000000    -0.0548511  
C        C      0.966300000000     0.408500000000     0.606690000000    -0.0548511  
C        C      0.885600000000     0.280000000000     0.637390000000    -0.0548511  
C        C      0.949700000000     0.288000000000     0.692030000000    -0.0548511  
C        C      0.276200000000     0.980900000000     0.028800000000    -0.0548511  
C        C      0.354100000000     0.038800000000     0.060920000000    -0.0548511  
C        C      0.471900000000     0.014000000000     0.091260000000    -0.0548511  
C        C      0.507000000000     0.930100000000     0.086900000000    -0.0548511  
C        C      0.426100000000     0.875800000000     0.054250000000    -0.0548511  
C        C      0.554900000000     0.073700000000     0.129120000000    -0.0548511  
C        C      0.495600000000     0.078200000000     0.192610000000    -0.0548511  
C        C      0.591900000000     0.128100000000     0.234320000000    -0.0548511  
C        C      0.524100000000     0.139800000000     0.295100000000    -0.0548511  
C        C      0.530800000000     0.078400000000     0.338880000000    -0.0548511  
C        C      0.466300000000     0.091500000000     0.393310000000    -0.0548511  
C        C      0.385600000000     0.220000000000     0.362610000000    -0.0548511  
C        C      0.449700000000     0.212000000000     0.307970000000    -0.0548511  
C        C      0.223800000000     0.019100000000     0.528800000000    -0.0548511  
C        C      0.145900000000     0.961200000000     0.560920000000    -0.0548511  
C        C      0.028100000000     0.986000000000     0.591260000000    -0.0548511  
C        C      0.993000000000     0.069900000000     0.586900000000    -0.0548511  
C        C      0.073900000000     0.124200000000     0.554250000000    -0.0548511  
C        C      0.945100000000     0.926300000000     0.629120000000    -0.0548511  
C        C      0.004400000000     0.921800000000     0.692610000000    -0.0548511  
C        C      0.908100000000     0.871900000000     0.734320000000    -0.0548511  
C        C      0.975900000000     0.860200000000     0.795100000000    -0.0548511  
C        C      0.969200000000     0.921600000000     0.838880000000    -0.0548511  
C        C      0.033700000000     0.908500000000     0.893310000000    -0.0548511  
C        C      0.114400000000     0.780000000000     0.862610000000    -0.0548511  
C        C      0.050300000000     0.788000000000     0.807970000000    -0.0548511  
C        C      0.276200000000     0.519100000000     0.528800000000    -0.0548511  
C        C      0.354100000000     0.461200000000     0.560920000000    -0.0548511  
C        C      0.471900000000     0.486000000000     0.591260000000    -0.0548511  
C        C      0.507000000000     0.569900000000     0.586900000000    -0.0548511  
C        C      0.426100000000     0.624200000000     0.554250000000    -0.0548511  
C        C      0.554900000000     0.426300000000     0.629120000000    -0.0548511  
C        C      0.495600000000     0.421800000000     0.692610000000    -0.0548511  
C        C      0.591900000000     0.371900000000     0.734320000000    -0.0548511  
C        C      0.524100000000     0.360200000000     0.795100000000    -0.0548511  
C        C      0.530800000000     0.421600000000     0.838880000000    -0.0548511  
C        C      0.466300000000     0.408500000000     0.893310000000    -0.0548511  
C        C      0.385600000000     0.280000000000     0.862610000000    -0.0548511  
C        C      0.449700000000     0.288000000000     0.807970000000    -0.0548511  
C        C      0.223800000000     0.480900000000     0.028800000000    -0.0548511  
C        C      0.145900000000     0.538800000000     0.060920000000    -0.0548511  
C        C      0.028100000000     0.514000000000     0.091260000000    -0.0548511  
C        C      0.993000000000     0.430100000000     0.086900000000    -0.0548511  
C        C      0.073900000000     0.375800000000     0.054250000000    -0.0548511  
C        C      0.945100000000     0.573700000000     0.129120000000    -0.0548511  
C        C      0.004400000000     0.578200000000     0.192610000000    -0.0548511  
C        C      0.908100000000     0.628100000000     0.234320000000    -0.0548511  
C        C      0.975900000000     0.639800000000     0.295100000000    -0.0548511  
C        C      0.969200000000     0.578400000000     0.338880000000    -0.0548511  
C        C      0.033700000000     0.591500000000     0.393310000000    -0.0548511  
C        C      0.114400000000     0.720000000000     0.362610000000    -0.0548511  
C        C      0.050300000000     0.712000000000     0.307970000000    -0.0548511  
C        C      0.723800000000     0.019100000000     0.971200000000    -0.0548511  
C        C      0.645900000000     0.961200000000     0.939080000000    -0.0548511  
C        C      0.528100000000     0.986000000000     0.908740000000    -0.0548511  
C        C      0.493000000000     0.069900000000     0.913100000000    -0.0548511  
C        C      0.573900000000     0.124200000000     0.945750000000    -0.0548511  
C        C      0.445100000000     0.926300000000     0.870880000000    -0.0548511  
C        C      0.504400000000     0.921800000000     0.807390000000    -0.0548511  
C        C      0.408100000000     0.871900000000     0.765680000000    -0.0548511  
C        C      0.475900000000     0.860200000000     0.704900000000    -0.0548511  
C        C      0.469200000000     0.921600000000     0.661120000000    -0.0548511  
C        C      0.533700000000     0.908500000000     0.606690000000    -0.0548511  
C        C      0.614400000000     0.780000000000     0.637390000000    -0.0548511  
C        C      0.550300000000     0.788000000000     0.692030000000    -0.0548511  
C        C      0.776200000000     0.980900000000     0.471200000000    -0.0548511  
C        C      0.854100000000     0.038800000000     0.439080000000    -0.0548511  
C        C      0.971900000000     0.014000000000     0.408740000000    -0.0548511  
C        C      0.007000000000     0.930100000000     0.413100000000    -0.0548511  
C        C      0.926100000000     0.875800000000     0.445750000000    -0.0548511  
C        C      0.054900000000     0.073700000000     0.370880000000    -0.0548511  
C        C      0.995600000000     0.078200000000     0.307390000000    -0.0548511  
C        C      0.091900000000     0.128100000000     0.265680000000    -0.0548511  
C        C      0.024100000000     0.139800000000     0.204900000000    -0.0548511  
C        C      0.030800000000     0.078400000000     0.161120000000    -0.0548511  
C        C      0.966300000000     0.091500000000     0.106690000000    -0.0548511  
C        C      0.885600000000     0.220000000000     0.137390000000    -0.0548511  
C        C      0.949700000000     0.212000000000     0.192030000000    -0.0548511  
S        S      0.068510000000     0.320470000000     0.443920000000     0.667306   
S        S      0.431490000000     0.679530000000     0.943920000000     0.667306   
S        S      0.931490000000     0.820470000000     0.056080000000     0.667306   
S        S      0.568510000000     0.179530000000     0.556080000000     0.667306   
S        S      0.931490000000     0.679530000000     0.556080000000     0.667306   
S        S      0.568510000000     0.320470000000     0.056080000000     0.667306   
S        S      0.068510000000     0.179530000000     0.943920000000     0.667306   
S        S      0.431490000000     0.820470000000     0.443920000000     0.667306   
N        N      0.690200000000     0.399460000000     0.473900000000    -0.232773   
N        N      0.605900000000     0.661650000000     0.094090000000    -0.232773   
N        N      0.809800000000     0.600540000000     0.973900000000    -0.232773   
N        N      0.894100000000     0.338350000000     0.594090000000    -0.232773   
N        N      0.309800000000     0.899460000000     0.026100000000    -0.232773   
N        N      0.394100000000     0.161650000000     0.405910000000    -0.232773   
N        N      0.190200000000     0.100540000000     0.526100000000    -0.232773   
N        N      0.105900000000     0.838350000000     0.905910000000    -0.232773   
N        N      0.309800000000     0.600540000000     0.526100000000    -0.232773   
N        N      0.394100000000     0.338350000000     0.905910000000    -0.232773   
N        N      0.190200000000     0.399460000000     0.026100000000    -0.232773   
N        N      0.105900000000     0.661650000000     0.405910000000    -0.232773   
N        N      0.690200000000     0.100540000000     0.973900000000    -0.232773   
N        N      0.605900000000     0.838350000000     0.594090000000    -0.232773   
N        N      0.809800000000     0.899460000000     0.473900000000    -0.232773   
N        N      0.894100000000     0.161650000000     0.094090000000    -0.232773   
O        O      0.950200000000     0.262540000000     0.459730000000    -0.318143   
O        O      0.196100000000     0.290180000000     0.476140000000    -0.318143   
O        O      0.092800000000     0.316100000000     0.380450000000    -0.318143   
O        O      0.032900000000     0.403860000000     0.465080000000    -0.318143   
O        O      0.549800000000     0.737460000000     0.959730000000    -0.318143   
O        O      0.303900000000     0.709820000000     0.976140000000    -0.318143   
O        O      0.407200000000     0.683900000000     0.880450000000    -0.318143   
O        O      0.467100000000     0.596140000000     0.965080000000    -0.318143   
O        O      0.049800000000     0.762540000000     0.040270000000    -0.318143   
O        O      0.803900000000     0.790180000000     0.023860000000    -0.318143   
O        O      0.907200000000     0.816100000000     0.119550000000    -0.318143   
O        O      0.967100000000     0.903860000000     0.034920000000    -0.318143   
O        O      0.450200000000     0.237460000000     0.540270000000    -0.318143   
O        O      0.696100000000     0.209820000000     0.523860000000    -0.318143   
O        O      0.592800000000     0.183900000000     0.619550000000    -0.318143   
O        O      0.532900000000     0.096140000000     0.534920000000    -0.318143   
O        O      0.049800000000     0.737460000000     0.540270000000    -0.318143   
O        O      0.803900000000     0.709820000000     0.523860000000    -0.318143   
O        O      0.907200000000     0.683900000000     0.619550000000    -0.318143   
O        O      0.967100000000     0.596140000000     0.534920000000    -0.318143   
O        O      0.450200000000     0.262540000000     0.040270000000    -0.318143   
O        O      0.696100000000     0.290180000000     0.023860000000    -0.318143   
O        O      0.592800000000     0.316100000000     0.119550000000    -0.318143   
O        O      0.532900000000     0.403860000000     0.034920000000    -0.318143   
O        O      0.950200000000     0.237460000000     0.959730000000    -0.318143   
O        O      0.196100000000     0.209820000000     0.976140000000    -0.318143   
O        O      0.092800000000     0.183900000000     0.880450000000    -0.318143   
O        O      0.032900000000     0.096140000000     0.965080000000    -0.318143   
O        O      0.549800000000     0.762540000000     0.459730000000    -0.318143   
O        O      0.303900000000     0.790180000000     0.476140000000    -0.318143   
O        O      0.407200000000     0.816100000000     0.380450000000    -0.318143   
O        O      0.467100000000     0.903860000000     0.465080000000    -0.318143   


