data_GIDKOU_original

_audit_creation_method RASPA-1.0
_audit_creation_date 2022-1-31
_audit_author_name 'Felipe Lopes de Oliveira <felipe.lopes.oliveira@ibm.com>'

_cell_length_a    14.1613
_cell_length_b    15.6764
_cell_length_c    16.1345
_cell_angle_alpha 90
_cell_angle_beta  90
_cell_angle_gamma 90
_cell_volume      3581.83

_symmetry_cell_setting          triclinic
_symmetry_space_group_name_Hall 'P 1'
_symmetry_space_group_name_H-M  'P 1'
_symmetry_Int_Tables_number     1

_symmetry_equiv_pos_as_xyz 'x,y,z'

loop_
_atom_site_label
_atom_site_type_symbol
_atom_site_fract_x
_atom_site_fract_y
_atom_site_fract_z
_atom_site_charge
Zn       Zn     0.620420000000     0.514810000000     0.312290000000     0.406327   
Zn       Zn     0.645970000000     0.569390000000     0.721830000000     0.406327   
Zn       Zn     0.879580000000     0.485190000000     0.812290000000     0.406327   
Zn       Zn     0.854030000000     0.430610000000     0.221830000000     0.406327   
Zn       Zn     0.379580000000     0.014810000000     0.187710000000     0.406327   
Zn       Zn     0.354030000000     0.069390000000     0.778170000000     0.406327   
Zn       Zn     0.120420000000     0.985190000000     0.687710000000     0.406327   
Zn       Zn     0.145970000000     0.930610000000     0.278170000000     0.406327   
Zn       Zn     0.379580000000     0.485190000000     0.687710000000     0.406327   
Zn       Zn     0.354030000000     0.430610000000     0.278170000000     0.406327   
Zn       Zn     0.120420000000     0.514810000000     0.187710000000     0.406327   
Zn       Zn     0.145970000000     0.569390000000     0.778170000000     0.406327   
Zn       Zn     0.620420000000     0.985190000000     0.812290000000     0.406327   
Zn       Zn     0.645970000000     0.930610000000     0.221830000000     0.406327   
Zn       Zn     0.879580000000     0.014810000000     0.312290000000     0.406327   
Zn       Zn     0.854030000000     0.069390000000     0.721830000000     0.406327   
Zn       Zn     0.000000000000     0.500000000000     0.500000000000     0.406327   
Zn       Zn     0.500000000000     0.500000000000     0.000000000000     0.406327   
Zn       Zn     0.000000000000     0.000000000000     0.000000000000     0.406327   
Zn       Zn     0.500000000000     0.000000000000     0.500000000000     0.406327   
H        H      0.715300000000     0.730100000000     0.299100000000     0.111985   
H        H      0.553000000000     0.573700000000     0.519200000000     0.111985   
H        H      0.344700000000     0.821300000000     0.133800000000     0.111985   
H        H      0.784700000000     0.269900000000     0.799100000000     0.111985   
H        H      0.947000000000     0.426300000000     0.019200000000     0.111985   
H        H      0.155300000000     0.178700000000     0.633800000000     0.111985   
H        H      0.284700000000     0.230100000000     0.200900000000     0.111985   
H        H      0.447000000000     0.073700000000     0.980800000000     0.111985   
H        H      0.655300000000     0.321300000000     0.366200000000     0.111985   
H        H      0.215300000000     0.769900000000     0.700900000000     0.111985   
H        H      0.053000000000     0.926300000000     0.480800000000     0.111985   
H        H      0.844700000000     0.678700000000     0.866200000000     0.111985   
H        H      0.284700000000     0.269900000000     0.700900000000     0.111985   
H        H      0.447000000000     0.426300000000     0.480800000000     0.111985   
H        H      0.655300000000     0.178700000000     0.866200000000     0.111985   
H        H      0.215300000000     0.730100000000     0.200900000000     0.111985   
H        H      0.053000000000     0.573700000000     0.980800000000     0.111985   
H        H      0.844700000000     0.821300000000     0.366200000000     0.111985   
H        H      0.715300000000     0.769900000000     0.799100000000     0.111985   
H        H      0.553000000000     0.926300000000     0.019200000000     0.111985   
H        H      0.344700000000     0.678700000000     0.633800000000     0.111985   
H        H      0.784700000000     0.230100000000     0.299100000000     0.111985   
H        H      0.947000000000     0.073700000000     0.519200000000     0.111985   
H        H      0.155300000000     0.321300000000     0.133800000000     0.111985   
C        C      0.524800000000     0.762200000000     0.219500000000     0.148161   
C        C      0.521300000000     0.676500000000     0.241000000000     0.148161   
C        C      0.654500000000     0.726700000000     0.277500000000     0.148161   
C        C      0.453600000000     0.818500000000     0.181900000000     0.148161   
C        C      0.444400000000     0.612900000000     0.233600000000     0.148161   
C        C      0.742500000000     0.497900000000     0.473100000000     0.148161   
C        C      0.750900000000     0.511800000000     0.557700000000     0.148161   
C        C      0.614100000000     0.551900000000     0.518000000000     0.148161   
C        C      0.807100000000     0.462600000000     0.407700000000     0.148161   
C        C      0.826900000000     0.496200000000     0.621300000000     0.148161   
C        C      0.975200000000     0.237800000000     0.719500000000     0.148161   
C        C      0.978700000000     0.323500000000     0.741000000000     0.148161   
C        C      0.845500000000     0.273300000000     0.777500000000     0.148161   
C        C      0.046400000000     0.181500000000     0.681900000000     0.148161   
C        C      0.055600000000     0.387100000000     0.733600000000     0.148161   
C        C      0.757500000000     0.502100000000     0.973100000000     0.148161   
C        C      0.749100000000     0.488200000000     0.057700000000     0.148161   
C        C      0.885900000000     0.448100000000     0.018000000000     0.148161   
C        C      0.692900000000     0.537400000000     0.907700000000     0.148161   
C        C      0.673100000000     0.503800000000     0.121300000000     0.148161   
C        C      0.475200000000     0.262200000000     0.280500000000     0.148161   
C        C      0.478700000000     0.176500000000     0.259000000000     0.148161   
C        C      0.345500000000     0.226700000000     0.222500000000     0.148161   
C        C      0.546400000000     0.318500000000     0.318100000000     0.148161   
C        C      0.555600000000     0.112900000000     0.266400000000     0.148161   
C        C      0.257500000000     0.997900000000     0.026900000000     0.148161   
C        C      0.249100000000     0.011800000000     0.942300000000     0.148161   
C        C      0.385900000000     0.051900000000     0.982000000000     0.148161   
C        C      0.192900000000     0.962600000000     0.092300000000     0.148161   
C        C      0.173100000000     0.996200000000     0.878700000000     0.148161   
C        C      0.024800000000     0.737800000000     0.780500000000     0.148161   
C        C      0.021300000000     0.823500000000     0.759000000000     0.148161   
C        C      0.154500000000     0.773300000000     0.722500000000     0.148161   
C        C      0.953600000000     0.681500000000     0.818100000000     0.148161   
C        C      0.944400000000     0.887100000000     0.766400000000     0.148161   
C        C      0.242500000000     0.002100000000     0.526900000000     0.148161   
C        C      0.250900000000     0.988200000000     0.442300000000     0.148161   
C        C      0.114100000000     0.948100000000     0.482000000000     0.148161   
C        C      0.307100000000     0.037400000000     0.592300000000     0.148161   
C        C      0.326900000000     0.003800000000     0.378700000000     0.148161   
C        C      0.475200000000     0.237800000000     0.780500000000     0.148161   
C        C      0.478700000000     0.323500000000     0.759000000000     0.148161   
C        C      0.345500000000     0.273300000000     0.722500000000     0.148161   
C        C      0.546400000000     0.181500000000     0.818100000000     0.148161   
C        C      0.555600000000     0.387100000000     0.766400000000     0.148161   
C        C      0.257500000000     0.502100000000     0.526900000000     0.148161   
C        C      0.249100000000     0.488200000000     0.442300000000     0.148161   
C        C      0.385900000000     0.448100000000     0.482000000000     0.148161   
C        C      0.192900000000     0.537400000000     0.592300000000     0.148161   
C        C      0.173100000000     0.503800000000     0.378700000000     0.148161   
C        C      0.024800000000     0.762200000000     0.280500000000     0.148161   
C        C      0.021300000000     0.676500000000     0.259000000000     0.148161   
C        C      0.154500000000     0.726700000000     0.222500000000     0.148161   
C        C      0.953600000000     0.818500000000     0.318100000000     0.148161   
C        C      0.944400000000     0.612900000000     0.266400000000     0.148161   
C        C      0.242500000000     0.497900000000     0.026900000000     0.148161   
C        C      0.250900000000     0.511800000000     0.942300000000     0.148161   
C        C      0.114100000000     0.551900000000     0.982000000000     0.148161   
C        C      0.307100000000     0.462600000000     0.092300000000     0.148161   
C        C      0.326900000000     0.496200000000     0.878700000000     0.148161   
C        C      0.524800000000     0.737800000000     0.719500000000     0.148161   
C        C      0.521300000000     0.823500000000     0.741000000000     0.148161   
C        C      0.654500000000     0.773300000000     0.777500000000     0.148161   
C        C      0.453600000000     0.681500000000     0.681900000000     0.148161   
C        C      0.444400000000     0.887100000000     0.733600000000     0.148161   
C        C      0.742500000000     0.002100000000     0.973100000000     0.148161   
C        C      0.750900000000     0.988200000000     0.057700000000     0.148161   
C        C      0.614100000000     0.948100000000     0.018000000000     0.148161   
C        C      0.807100000000     0.037400000000     0.907700000000     0.148161   
C        C      0.826900000000     0.003800000000     0.121300000000     0.148161   
C        C      0.975200000000     0.262200000000     0.219500000000     0.148161   
C        C      0.978700000000     0.176500000000     0.241000000000     0.148161   
C        C      0.845500000000     0.226700000000     0.277500000000     0.148161   
C        C      0.046400000000     0.318500000000     0.181900000000     0.148161   
C        C      0.055600000000     0.112900000000     0.233600000000     0.148161   
C        C      0.757500000000     0.997900000000     0.473100000000     0.148161   
C        C      0.749100000000     0.011800000000     0.557700000000     0.148161   
C        C      0.885900000000     0.051900000000     0.518000000000     0.148161   
C        C      0.692900000000     0.962600000000     0.407700000000     0.148161   
C        C      0.673100000000     0.996200000000     0.621300000000     0.148161   
N        N      0.610800000000     0.792800000000     0.243300000000    -0.133183   
N        N      0.604400000000     0.655500000000     0.278400000000    -0.133183   
N        N      0.654500000000     0.524300000000     0.449300000000    -0.133183   
N        N      0.668200000000     0.546100000000     0.585600000000    -0.133183   
N        N      0.889200000000     0.207200000000     0.743300000000    -0.133183   
N        N      0.895600000000     0.344500000000     0.778400000000    -0.133183   
N        N      0.845500000000     0.475700000000     0.949300000000    -0.133183   
N        N      0.831800000000     0.453900000000     0.085600000000    -0.133183   
N        N      0.389200000000     0.292800000000     0.256700000000    -0.133183   
N        N      0.395600000000     0.155500000000     0.221600000000    -0.133183   
N        N      0.345500000000     0.024300000000     0.050700000000    -0.133183   
N        N      0.331800000000     0.046100000000     0.914400000000    -0.133183   
N        N      0.110800000000     0.707200000000     0.756700000000    -0.133183   
N        N      0.104400000000     0.844500000000     0.721600000000    -0.133183   
N        N      0.154500000000     0.975700000000     0.550700000000    -0.133183   
N        N      0.168200000000     0.953900000000     0.414400000000    -0.133183   
N        N      0.389200000000     0.207200000000     0.756700000000    -0.133183   
N        N      0.395600000000     0.344500000000     0.721600000000    -0.133183   
N        N      0.345500000000     0.475700000000     0.550700000000    -0.133183   
N        N      0.331800000000     0.453900000000     0.414400000000    -0.133183   
N        N      0.110800000000     0.792800000000     0.256700000000    -0.133183   
N        N      0.104400000000     0.655500000000     0.221600000000    -0.133183   
N        N      0.154500000000     0.524300000000     0.050700000000    -0.133183   
N        N      0.168200000000     0.546100000000     0.914400000000    -0.133183   
N        N      0.610800000000     0.707200000000     0.743300000000    -0.133183   
N        N      0.604400000000     0.844500000000     0.778400000000    -0.133183   
N        N      0.654500000000     0.975700000000     0.949300000000    -0.133183   
N        N      0.668200000000     0.953900000000     0.085600000000    -0.133183   
N        N      0.889200000000     0.292800000000     0.243300000000    -0.133183   
N        N      0.895600000000     0.155500000000     0.278400000000    -0.133183   
N        N      0.845500000000     0.024300000000     0.449300000000    -0.133183   
N        N      0.831800000000     0.046100000000     0.585600000000    -0.133183   
O        O      0.473900000000     0.895100000000     0.173900000000    -0.287582   
O        O      0.375300000000     0.786000000000     0.160000000000    -0.287582   
O        O      0.368100000000     0.634500000000     0.198100000000    -0.287582   
O        O      0.457600000000     0.541900000000     0.265000000000    -0.287582   
O        O      0.768900000000     0.453700000000     0.337500000000    -0.287582   
O        O      0.890200000000     0.441800000000     0.420700000000    -0.287582   
O        O      0.902700000000     0.461300000000     0.603700000000    -0.287582   
O        O      0.806100000000     0.521200000000     0.693000000000    -0.287582   
O        O      0.026100000000     0.104900000000     0.673900000000    -0.287582   
O        O      0.124700000000     0.214000000000     0.660000000000    -0.287582   
O        O      0.131900000000     0.365500000000     0.698100000000    -0.287582   
O        O      0.042400000000     0.458100000000     0.765000000000    -0.287582   
O        O      0.731100000000     0.546300000000     0.837500000000    -0.287582   
O        O      0.609800000000     0.558200000000     0.920700000000    -0.287582   
O        O      0.597300000000     0.538700000000     0.103700000000    -0.287582   
O        O      0.693900000000     0.478800000000     0.193000000000    -0.287582   
O        O      0.526100000000     0.395100000000     0.326100000000    -0.287582   
O        O      0.624700000000     0.286000000000     0.340000000000    -0.287582   
O        O      0.631900000000     0.134500000000     0.301900000000    -0.287582   
O        O      0.542400000000     0.041900000000     0.235000000000    -0.287582   
O        O      0.231100000000     0.953700000000     0.162500000000    -0.287582   
O        O      0.109800000000     0.941800000000     0.079300000000    -0.287582   
O        O      0.097300000000     0.961300000000     0.896300000000    -0.287582   
O        O      0.193900000000     0.021200000000     0.807000000000    -0.287582   
O        O      0.973900000000     0.604900000000     0.826100000000    -0.287582   
O        O      0.875300000000     0.714000000000     0.840000000000    -0.287582   
O        O      0.868100000000     0.865500000000     0.801900000000    -0.287582   
O        O      0.957600000000     0.958100000000     0.735000000000    -0.287582   
O        O      0.268900000000     0.046300000000     0.662500000000    -0.287582   
O        O      0.390200000000     0.058200000000     0.579300000000    -0.287582   
O        O      0.402700000000     0.038700000000     0.396300000000    -0.287582   
O        O      0.306100000000     0.978800000000     0.307000000000    -0.287582   
O        O      0.526100000000     0.104900000000     0.826100000000    -0.287582   
O        O      0.624700000000     0.214000000000     0.840000000000    -0.287582   
O        O      0.631900000000     0.365500000000     0.801900000000    -0.287582   
O        O      0.542400000000     0.458100000000     0.735000000000    -0.287582   
O        O      0.231100000000     0.546300000000     0.662500000000    -0.287582   
O        O      0.109800000000     0.558200000000     0.579300000000    -0.287582   
O        O      0.097300000000     0.538700000000     0.396300000000    -0.287582   
O        O      0.193900000000     0.478800000000     0.307000000000    -0.287582   
O        O      0.973900000000     0.895100000000     0.326100000000    -0.287582   
O        O      0.875300000000     0.786000000000     0.340000000000    -0.287582   
O        O      0.868100000000     0.634500000000     0.301900000000    -0.287582   
O        O      0.957600000000     0.541900000000     0.235000000000    -0.287582   
O        O      0.268900000000     0.453700000000     0.162500000000    -0.287582   
O        O      0.390200000000     0.441800000000     0.079300000000    -0.287582   
O        O      0.402700000000     0.461300000000     0.896300000000    -0.287582   
O        O      0.306100000000     0.521200000000     0.807000000000    -0.287582   
O        O      0.473900000000     0.604900000000     0.673900000000    -0.287582   
O        O      0.375300000000     0.714000000000     0.660000000000    -0.287582   
O        O      0.368100000000     0.865500000000     0.698100000000    -0.287582   
O        O      0.457600000000     0.958100000000     0.765000000000    -0.287582   
O        O      0.768900000000     0.046300000000     0.837500000000    -0.287582   
O        O      0.890200000000     0.058200000000     0.920700000000    -0.287582   
O        O      0.902700000000     0.038700000000     0.103700000000    -0.287582   
O        O      0.806100000000     0.978800000000     0.193000000000    -0.287582   
O        O      0.026100000000     0.395100000000     0.173900000000    -0.287582   
O        O      0.124700000000     0.286000000000     0.160000000000    -0.287582   
O        O      0.131900000000     0.134500000000     0.198100000000    -0.287582   
O        O      0.042400000000     0.041900000000     0.265000000000    -0.287582   
O        O      0.731100000000     0.953700000000     0.337500000000    -0.287582   
O        O      0.609800000000     0.941800000000     0.420700000000    -0.287582   
O        O      0.597300000000     0.961300000000     0.603700000000    -0.287582   
O        O      0.693900000000     0.021200000000     0.693000000000    -0.287582   


