data_GIMVAA_original

_audit_creation_method RASPA-1.0
_audit_creation_date 2022-1-31
_audit_author_name 'Felipe Lopes de Oliveira <felipe.lopes.oliveira@ibm.com>'

_cell_length_a    7.6001
_cell_length_b    9.9758
_cell_length_c    17.5108
_cell_angle_alpha 90
_cell_angle_beta  90
_cell_angle_gamma 90
_cell_volume      1327.62

_symmetry_cell_setting          triclinic
_symmetry_space_group_name_Hall 'P 1'
_symmetry_space_group_name_H-M  'P 1'
_symmetry_Int_Tables_number     1

_symmetry_equiv_pos_as_xyz 'x,y,z'

loop_
_atom_site_label
_atom_site_type_symbol
_atom_site_fract_x
_atom_site_fract_y
_atom_site_fract_z
_atom_site_charge
Zn       Zn     0.349750000000     0.250000000000     0.419260000000     0.335237   
Zn       Zn     0.489770000000     0.250000000000     0.762960000000     0.335237   
Zn       Zn     0.150250000000     0.750000000000     0.919260000000     0.335237   
Zn       Zn     0.010230000000     0.750000000000     0.262960000000     0.335237   
Zn       Zn     0.650250000000     0.750000000000     0.580740000000     0.335237   
Zn       Zn     0.510230000000     0.750000000000     0.237040000000     0.335237   
Zn       Zn     0.849750000000     0.250000000000     0.080740000000     0.335237   
Zn       Zn     0.989770000000     0.250000000000     0.737040000000     0.335237   
H        H      0.537200000000     0.459200000000     0.318400000000    -0.00144039 
H        H      0.037900000000     0.468300000000     0.372300000000    -0.00144039 
H        H      0.962800000000     0.540800000000     0.818400000000    -0.00144039 
H        H      0.462100000000     0.531700000000     0.872300000000    -0.00144039 
H        H      0.462800000000     0.959200000000     0.681600000000    -0.00144039 
H        H      0.962100000000     0.968300000000     0.627700000000    -0.00144039 
H        H      0.037200000000     0.040800000000     0.181600000000    -0.00144039 
H        H      0.537900000000     0.031700000000     0.127700000000    -0.00144039 
H        H      0.462800000000     0.540800000000     0.681600000000    -0.00144039 
H        H      0.962100000000     0.531700000000     0.627700000000    -0.00144039 
H        H      0.037200000000     0.459200000000     0.181600000000    -0.00144039 
H        H      0.537900000000     0.468300000000     0.127700000000    -0.00144039 
H        H      0.537200000000     0.040800000000     0.318400000000    -0.00144039 
H        H      0.037900000000     0.031700000000     0.372300000000    -0.00144039 
H        H      0.962800000000     0.959200000000     0.818400000000    -0.00144039 
H        H      0.462100000000     0.968300000000     0.872300000000    -0.00144039 
H        H      0.535300000000     0.250000000000     0.577700000000    -0.00144039 
H        H      0.026200000000     0.250000000000     0.542900000000    -0.00144039 
H        H      0.964700000000     0.750000000000     0.077700000000    -0.00144039 
H        H      0.473800000000     0.750000000000     0.042900000000    -0.00144039 
H        H      0.464700000000     0.750000000000     0.422300000000    -0.00144039 
H        H      0.973800000000     0.750000000000     0.457100000000    -0.00144039 
H        H      0.035300000000     0.250000000000     0.922300000000    -0.00144039 
H        H      0.526200000000     0.250000000000     0.957100000000    -0.00144039 
C        C      0.417600000000     0.485890000000     0.322500000000     0.101772   
C        C      0.149500000000     0.490600000000     0.351450000000     0.101772   
C        C      0.082400000000     0.514110000000     0.822500000000     0.101772   
C        C      0.350500000000     0.509400000000     0.851450000000     0.101772   
C        C      0.582400000000     0.985890000000     0.677500000000     0.101772   
C        C      0.850500000000     0.990600000000     0.648550000000     0.101772   
C        C      0.917600000000     0.014110000000     0.177500000000     0.101772   
C        C      0.649500000000     0.009400000000     0.148550000000     0.101772   
C        C      0.582400000000     0.514110000000     0.677500000000     0.101772   
C        C      0.850500000000     0.509400000000     0.648550000000     0.101772   
C        C      0.917600000000     0.485890000000     0.177500000000     0.101772   
C        C      0.649500000000     0.490600000000     0.148550000000     0.101772   
C        C      0.417600000000     0.014110000000     0.322500000000     0.101772   
C        C      0.149500000000     0.009400000000     0.351450000000     0.101772   
C        C      0.082400000000     0.985890000000     0.822500000000     0.101772   
C        C      0.350500000000     0.990600000000     0.851450000000     0.101772   
C        C      0.411700000000     0.250000000000     0.585880000000     0.101772   
C        C      0.138100000000     0.250000000000     0.567140000000     0.101772   
C        C      0.088300000000     0.750000000000     0.085880000000     0.101772   
C        C      0.361900000000     0.750000000000     0.067140000000     0.101772   
C        C      0.588300000000     0.750000000000     0.414120000000     0.101772   
C        C      0.861900000000     0.750000000000     0.432860000000     0.101772   
C        C      0.911700000000     0.250000000000     0.914120000000     0.101772   
C        C      0.638100000000     0.250000000000     0.932860000000     0.101772   
N        N      0.295700000000     0.415980000000     0.361700000000    -0.141385   
N        N      0.353880000000     0.594870000000     0.290410000000    -0.141385   
N        N      0.178320000000     0.598130000000     0.309310000000    -0.141385   
N        N      0.204300000000     0.584020000000     0.861700000000    -0.141385   
N        N      0.146120000000     0.405130000000     0.790410000000    -0.141385   
N        N      0.321680000000     0.401870000000     0.809310000000    -0.141385   
N        N      0.704300000000     0.915980000000     0.638300000000    -0.141385   
N        N      0.646120000000     0.094870000000     0.709590000000    -0.141385   
N        N      0.821680000000     0.098130000000     0.690690000000    -0.141385   
N        N      0.795700000000     0.084020000000     0.138300000000    -0.141385   
N        N      0.853880000000     0.905130000000     0.209590000000    -0.141385   
N        N      0.678320000000     0.901870000000     0.190690000000    -0.141385   
N        N      0.704300000000     0.584020000000     0.638300000000    -0.141385   
N        N      0.646120000000     0.405130000000     0.709590000000    -0.141385   
N        N      0.821680000000     0.401870000000     0.690690000000    -0.141385   
N        N      0.795700000000     0.415980000000     0.138300000000    -0.141385   
N        N      0.853880000000     0.594870000000     0.209590000000    -0.141385   
N        N      0.678320000000     0.598130000000     0.190690000000    -0.141385   
N        N      0.295700000000     0.084020000000     0.361700000000    -0.141385   
N        N      0.353880000000     0.905130000000     0.290410000000    -0.141385   
N        N      0.178320000000     0.901870000000     0.309310000000    -0.141385   
N        N      0.204300000000     0.915980000000     0.861700000000    -0.141385   
N        N      0.146120000000     0.094870000000     0.790410000000    -0.141385   
N        N      0.321680000000     0.098130000000     0.809310000000    -0.141385   
N        N      0.292700000000     0.250000000000     0.528870000000    -0.141385   
N        N      0.338900000000     0.250000000000     0.654350000000    -0.141385   
N        N      0.160300000000     0.250000000000     0.642000000000    -0.141385   
N        N      0.207300000000     0.750000000000     0.028870000000    -0.141385   
N        N      0.161100000000     0.750000000000     0.154350000000    -0.141385   
N        N      0.339700000000     0.750000000000     0.142000000000    -0.141385   
N        N      0.707300000000     0.750000000000     0.471130000000    -0.141385   
N        N      0.661100000000     0.750000000000     0.345650000000    -0.141385   
N        N      0.839700000000     0.750000000000     0.358000000000    -0.141385   
N        N      0.792700000000     0.250000000000     0.971130000000    -0.141385   
N        N      0.838900000000     0.250000000000     0.845650000000    -0.141385   
N        N      0.660300000000     0.250000000000     0.858000000000    -0.141385   


