data_GIYTIS_original

_audit_creation_method RASPA-1.0
_audit_creation_date 2022-1-29
_audit_author_name 'Felipe Lopes de Oliveira <felipe.lopes.oliveira@ibm.com>'

_cell_length_a    8.9508
_cell_length_b    9.0892
_cell_length_c    19.802
_cell_angle_alpha 95.64
_cell_angle_beta  97.68
_cell_angle_gamma 118.25
_cell_volume      1382.1

_symmetry_cell_setting          triclinic
_symmetry_space_group_name_Hall 'P 1'
_symmetry_space_group_name_H-M  'P 1'
_symmetry_Int_Tables_number     1

_symmetry_equiv_pos_as_xyz 'x,y,z'

loop_
_atom_site_label
_atom_site_type_symbol
_atom_site_fract_x
_atom_site_fract_y
_atom_site_fract_z
_atom_site_charge
Zn       Zn     0.313880000000     0.442920000000     0.770860000000     0.478102   
Zn       Zn     0.440000000000     0.614900000000     0.936210000000     0.478102   
Zn       Zn     0.566320000000     0.786250000000     0.101760000000     0.478102   
H        H      0.384400000000     0.995400000000     0.836800000000     0.0774447  
H        H      0.490800000000     0.067500000000     0.779300000000     0.0774447  
H        H      0.775000000000     0.073300000000     0.778200000000     0.0774447  
H        H      0.853100000000     0.005200000000     0.835200000000     0.0774447  
H        H      0.843600000000     0.450000000000     0.886000000000     0.0774447  
H        H      0.773800000000     0.348600000000     0.809400000000     0.0774447  
H        H      0.037700000000     0.779400000000     0.985400000000     0.0774447  
H        H      0.106200000000     0.874400000000     0.063000000000     0.0774447  
H        H      0.489800000000     0.238800000000     0.033100000000     0.0774447  
H        H      0.395600000000     0.171300000000     0.093900000000     0.0774447  
H        H      0.106800000000     0.156100000000     0.092400000000     0.0774447  
H        H      0.034300000000     0.223500000000     0.033900000000     0.0774447  
H        H      0.979400000000     0.208600000000     0.673100000000     0.0774447  
H        H      0.937600000000     0.035400000000     0.565200000000     0.0774447  
H        H      0.300900000000     0.441900000000     0.518200000000     0.0774447  
H        H      0.414500000000     0.526300000000     0.634500000000     0.0774447  
H        H      0.096600000000     0.253200000000     0.425600000000     0.0774447  
H        H      0.825900000000     0.003900000000     0.452100000000     0.0774447  
H        H      0.596000000000     0.770400000000     0.353800000000     0.0774447  
H        H      0.486800000000     0.668200000000     0.238300000000     0.0774447  
H        H      0.844200000000     0.102000000000     0.196500000000     0.0774447  
H        H      0.016400000000     0.127000000000     0.309800000000     0.0774447  
C        C      0.502400000000     0.336800000000     0.859600000000     0.0213204  
C        C      0.596600000000     0.235800000000     0.873300000000     0.0213204  
C        C      0.500200000000     0.058700000000     0.828000000000     0.0213204  
C        C      0.606000000000     0.966200000000     0.846400000000     0.0213204  
C        C      0.511000000000     0.786400000000     0.804200000000     0.0213204  
C        C      0.788400000000     0.064600000000     0.826800000000     0.0213204  
C        C      0.885500000000     0.245000000000     0.873300000000     0.0213204  
C        C      0.063800000000     0.346600000000     0.861500000000     0.0213204  
C        C      0.782900000000     0.337000000000     0.857800000000     0.0213204  
C        C      0.812000000000     0.879000000000     0.011600000000     0.0213204  
C        C      0.000700000000     0.989600000000     0.001200000000     0.0213204  
C        C      0.099500000000     0.890500000000     0.015200000000     0.0213204  
C        C      0.280200000000     0.988600000000     0.001400000000     0.0213204  
C        C      0.376300000000     0.893700000000     0.016600000000     0.0213204  
C        C      0.377200000000     0.175400000000     0.044900000000     0.0213204  
C        C      0.274900000000     0.265300000000     0.030900000000     0.0213204  
C        C      0.377000000000     0.442800000000     0.073600000000     0.0213204  
C        C      0.099000000000     0.164400000000     0.043700000000     0.0213204  
C        C      0.059000000000     0.238000000000     0.644300000000     0.0213204  
C        C      0.013000000000     0.152000000000     0.576600000000     0.0213204  
C        C      0.082000000000     0.245000000000     0.526600000000     0.0213204  
C        C      0.237000000000     0.382000000000     0.549400000000     0.0213204  
C        C      0.303000000000     0.434000000000     0.619500000000     0.0213204  
C        C      0.023000000000     0.188000000000     0.452700000000     0.0213204  
C        C      0.891000000000     0.068000000000     0.422300000000     0.0213204  
C        C      0.800000000000     0.993000000000     0.345700000000     0.0213204  
C        C      0.651000000000     0.835000000000     0.322000000000     0.0213204  
C        C      0.586000000000     0.774000000000     0.252700000000     0.0213204  
C        C      0.806000000000     0.023000000000     0.225800000000     0.0213204  
C        C      0.897000000000     0.060000000000     0.297300000000     0.0213204  
N        N      0.218300000000     0.362900000000     0.666300000000    -0.175508   
N        N      0.659300000000     0.863000000000     0.203800000000    -0.175508   
O        O      0.450300000000     0.337700000000     0.793100000000    -0.285557   
O        O      0.492200000000     0.419800000000     0.906900000000    -0.285557   
O        O      0.455000000000     0.762700000000     0.738300000000    -0.285557   
O        O      0.430300000000     0.665200000000     0.832900000000    -0.285557   
O        O      0.091700000000     0.329600000000     0.800500000000    -0.285557   
O        O      0.176800000000     0.448900000000     0.912500000000    -0.285557   
O        O      0.705100000000     0.774600000000     0.961200000000    -0.285557   
O        O      0.786200000000     0.905800000000     0.072100000000    -0.285557   
O        O      0.384100000000     0.807000000000     0.964900000000    -0.285557   
O        O      0.446000000000     0.909100000000     0.075900000000    -0.285557   
O        O      0.447900000000     0.563300000000     0.039500000000    -0.285557   
O        O      0.348900000000     0.478000000000     0.129200000000    -0.285557   


