data_GIZJOP_original

_audit_creation_method RASPA-1.0
_audit_creation_date 2022-1-31
_audit_author_name 'Felipe Lopes de Oliveira <felipe.lopes.oliveira@ibm.com>'

_cell_length_a    15.662
_cell_length_b    15.6621
_cell_length_c    18.2073
_cell_angle_alpha 90
_cell_angle_beta  90
_cell_angle_gamma 90
_cell_volume      4466.25

_symmetry_cell_setting          triclinic
_symmetry_space_group_name_Hall 'P 1'
_symmetry_space_group_name_H-M  'P 1'
_symmetry_Int_Tables_number     1

_symmetry_equiv_pos_as_xyz 'x,y,z'

loop_
_atom_site_label
_atom_site_type_symbol
_atom_site_fract_x
_atom_site_fract_y
_atom_site_fract_z
_atom_site_charge
Zn       Zn     0.696570000000     0.860790000000     0.403410000000     0.340017   
Zn       Zn     0.502570000000     0.835010000000     0.683290000000     0.340017   
Zn       Zn     0.803430000000     0.139210000000     0.903410000000     0.340017   
Zn       Zn     0.997430000000     0.164990000000     0.183290000000     0.340017   
Zn       Zn     0.303430000000     0.360790000000     0.096590000000     0.340017   
Zn       Zn     0.497430000000     0.335010000000     0.816710000000     0.340017   
Zn       Zn     0.196570000000     0.639210000000     0.596590000000     0.340017   
Zn       Zn     0.002570000000     0.664990000000     0.316710000000     0.340017   
Zn       Zn     0.303430000000     0.139210000000     0.596590000000     0.340017   
Zn       Zn     0.497430000000     0.164990000000     0.316710000000     0.340017   
Zn       Zn     0.196570000000     0.860790000000     0.096590000000     0.340017   
Zn       Zn     0.002570000000     0.835010000000     0.816710000000     0.340017   
Zn       Zn     0.696570000000     0.639210000000     0.903410000000     0.340017   
Zn       Zn     0.502570000000     0.664990000000     0.183290000000     0.340017   
Zn       Zn     0.803430000000     0.360790000000     0.403410000000     0.340017   
Zn       Zn     0.997430000000     0.335010000000     0.683290000000     0.340017   
H        H      0.890500000000     0.940000000000     0.420900000000     0.0133502  
H        H      0.019400000000     0.858500000000     0.388500000000     0.0133502  
H        H      0.637200000000     0.663700000000     0.431900000000     0.0133502  
H        H      0.730400000000     0.961300000000     0.252000000000     0.0133502  
H        H      0.765200000000     0.938900000000     0.558300000000     0.0133502  
H        H      0.556600000000     0.818100000000     0.517800000000     0.0133502  
H        H      0.684200000000     0.927100000000     0.671500000000     0.0133502  
H        H      0.589800000000     0.812400000000     0.268100000000     0.0133502  
H        H      0.558300000000     0.583200000000     0.339600000000     0.0133502  
H        H      0.639500000000     0.074900000000     0.208000000000     0.0133502  
H        H      0.567500000000     0.012600000000     0.404300000000     0.0133502  
H        H      0.817500000000     0.719100000000     0.347700000000     0.0133502  
H        H      0.609500000000     0.060000000000     0.920900000000     0.0133502  
H        H      0.480600000000     0.141500000000     0.888500000000     0.0133502  
H        H      0.862800000000     0.336300000000     0.931900000000     0.0133502  
H        H      0.769600000000     0.038700000000     0.752000000000     0.0133502  
H        H      0.734800000000     0.061100000000     0.058300000000     0.0133502  
H        H      0.943400000000     0.181900000000     0.017800000000     0.0133502  
H        H      0.815800000000     0.072900000000     0.171500000000     0.0133502  
H        H      0.910200000000     0.187600000000     0.768100000000     0.0133502  
H        H      0.941700000000     0.416800000000     0.839600000000     0.0133502  
H        H      0.860500000000     0.925100000000     0.708000000000     0.0133502  
H        H      0.932500000000     0.987400000000     0.904300000000     0.0133502  
H        H      0.682500000000     0.280900000000     0.847700000000     0.0133502  
H        H      0.109500000000     0.440000000000     0.079100000000     0.0133502  
H        H      0.980600000000     0.358500000000     0.111500000000     0.0133502  
H        H      0.362800000000     0.163700000000     0.068100000000     0.0133502  
H        H      0.269600000000     0.461300000000     0.248000000000     0.0133502  
H        H      0.234800000000     0.438900000000     0.941700000000     0.0133502  
H        H      0.443400000000     0.318100000000     0.982200000000     0.0133502  
H        H      0.315800000000     0.427100000000     0.828500000000     0.0133502  
H        H      0.410200000000     0.312400000000     0.231900000000     0.0133502  
H        H      0.441700000000     0.083200000000     0.160400000000     0.0133502  
H        H      0.360500000000     0.574900000000     0.292000000000     0.0133502  
H        H      0.432500000000     0.512600000000     0.095700000000     0.0133502  
H        H      0.182500000000     0.219100000000     0.152300000000     0.0133502  
H        H      0.390500000000     0.560000000000     0.579100000000     0.0133502  
H        H      0.519400000000     0.641500000000     0.611500000000     0.0133502  
H        H      0.137200000000     0.836300000000     0.568100000000     0.0133502  
H        H      0.230400000000     0.538700000000     0.748000000000     0.0133502  
H        H      0.265200000000     0.561100000000     0.441700000000     0.0133502  
H        H      0.056600000000     0.681900000000     0.482200000000     0.0133502  
H        H      0.184200000000     0.572900000000     0.328500000000     0.0133502  
H        H      0.089800000000     0.687600000000     0.731900000000     0.0133502  
H        H      0.058300000000     0.916800000000     0.660400000000     0.0133502  
H        H      0.139500000000     0.425100000000     0.792000000000     0.0133502  
H        H      0.067500000000     0.487400000000     0.595700000000     0.0133502  
H        H      0.317500000000     0.780900000000     0.652300000000     0.0133502  
H        H      0.109500000000     0.060000000000     0.579100000000     0.0133502  
H        H      0.980600000000     0.141500000000     0.611500000000     0.0133502  
H        H      0.362800000000     0.336300000000     0.568100000000     0.0133502  
H        H      0.269600000000     0.038700000000     0.748000000000     0.0133502  
H        H      0.234800000000     0.061100000000     0.441700000000     0.0133502  
H        H      0.443400000000     0.181900000000     0.482200000000     0.0133502  
H        H      0.315800000000     0.072900000000     0.328500000000     0.0133502  
H        H      0.410200000000     0.187600000000     0.731900000000     0.0133502  
H        H      0.441700000000     0.416800000000     0.660400000000     0.0133502  
H        H      0.360500000000     0.925100000000     0.792000000000     0.0133502  
H        H      0.432500000000     0.987400000000     0.595700000000     0.0133502  
H        H      0.182500000000     0.280900000000     0.652300000000     0.0133502  
H        H      0.390500000000     0.940000000000     0.079100000000     0.0133502  
H        H      0.519400000000     0.858500000000     0.111500000000     0.0133502  
H        H      0.137200000000     0.663700000000     0.068100000000     0.0133502  
H        H      0.230400000000     0.961300000000     0.248000000000     0.0133502  
H        H      0.265200000000     0.938900000000     0.941700000000     0.0133502  
H        H      0.056600000000     0.818100000000     0.982200000000     0.0133502  
H        H      0.184200000000     0.927100000000     0.828500000000     0.0133502  
H        H      0.089800000000     0.812400000000     0.231900000000     0.0133502  
H        H      0.058300000000     0.583200000000     0.160400000000     0.0133502  
H        H      0.139500000000     0.074900000000     0.292000000000     0.0133502  
H        H      0.067500000000     0.012600000000     0.095700000000     0.0133502  
H        H      0.317500000000     0.719100000000     0.152300000000     0.0133502  
H        H      0.890500000000     0.560000000000     0.920900000000     0.0133502  
H        H      0.019400000000     0.641500000000     0.888500000000     0.0133502  
H        H      0.637200000000     0.836300000000     0.931900000000     0.0133502  
H        H      0.730400000000     0.538700000000     0.752000000000     0.0133502  
H        H      0.765200000000     0.561100000000     0.058300000000     0.0133502  
H        H      0.556600000000     0.681900000000     0.017800000000     0.0133502  
H        H      0.684200000000     0.572900000000     0.171500000000     0.0133502  
H        H      0.589800000000     0.687600000000     0.768100000000     0.0133502  
H        H      0.558300000000     0.916800000000     0.839600000000     0.0133502  
H        H      0.639500000000     0.425100000000     0.708000000000     0.0133502  
H        H      0.567500000000     0.487400000000     0.904300000000     0.0133502  
H        H      0.817500000000     0.780900000000     0.847700000000     0.0133502  
H        H      0.609500000000     0.440000000000     0.420900000000     0.0133502  
H        H      0.480600000000     0.358500000000     0.388500000000     0.0133502  
H        H      0.862800000000     0.163700000000     0.431900000000     0.0133502  
H        H      0.769600000000     0.461300000000     0.252000000000     0.0133502  
H        H      0.734800000000     0.438900000000     0.558300000000     0.0133502  
H        H      0.943400000000     0.318100000000     0.517800000000     0.0133502  
H        H      0.815800000000     0.427100000000     0.671500000000     0.0133502  
H        H      0.910200000000     0.312400000000     0.268100000000     0.0133502  
H        H      0.941700000000     0.083200000000     0.339600000000     0.0133502  
H        H      0.860500000000     0.574900000000     0.208000000000     0.0133502  
H        H      0.932500000000     0.512600000000     0.404300000000     0.0133502  
H        H      0.682500000000     0.219100000000     0.347700000000     0.0133502  
C        C      0.890900000000     0.885100000000     0.401400000000     0.0421057  
C        C      0.963300000000     0.840000000000     0.382800000000     0.0421057  
C        C      0.618400000000     0.684600000000     0.387000000000     0.0421057  
C        C      0.685700000000     0.985700000000     0.278300000000     0.0421057  
C        C      0.712000000000     0.913000000000     0.563000000000     0.0421057  
C        C      0.599300000000     0.848200000000     0.542200000000     0.0421057  
C        C      0.667100000000     0.906300000000     0.626000000000     0.0421057  
C        C      0.592000000000     0.764200000000     0.297800000000     0.0421057  
C        C      0.574300000000     0.640200000000     0.335900000000     0.0421057  
C        C      0.636300000000     0.049300000000     0.253900000000     0.0421057  
C        C      0.597800000000     0.014700000000     0.360400000000     0.0421057  
C        C      0.851700000000     0.765200000000     0.360900000000     0.0421057  
C        C      0.609100000000     0.114900000000     0.901400000000     0.0421057  
C        C      0.536700000000     0.160000000000     0.882800000000     0.0421057  
C        C      0.881600000000     0.315400000000     0.887000000000     0.0421057  
C        C      0.814300000000     0.014300000000     0.778300000000     0.0421057  
C        C      0.788000000000     0.087000000000     0.063000000000     0.0421057  
C        C      0.900700000000     0.151800000000     0.042200000000     0.0421057  
C        C      0.832900000000     0.093700000000     0.126000000000     0.0421057  
C        C      0.908000000000     0.235800000000     0.797800000000     0.0421057  
C        C      0.925700000000     0.359800000000     0.835900000000     0.0421057  
C        C      0.863700000000     0.950700000000     0.753900000000     0.0421057  
C        C      0.902200000000     0.985300000000     0.860400000000     0.0421057  
C        C      0.648300000000     0.234800000000     0.860900000000     0.0421057  
C        C      0.109100000000     0.385100000000     0.098600000000     0.0421057  
C        C      0.036700000000     0.340000000000     0.117200000000     0.0421057  
C        C      0.381600000000     0.184600000000     0.113000000000     0.0421057  
C        C      0.314300000000     0.485700000000     0.221700000000     0.0421057  
C        C      0.288000000000     0.413000000000     0.937000000000     0.0421057  
C        C      0.400700000000     0.348200000000     0.957800000000     0.0421057  
C        C      0.332900000000     0.406300000000     0.874000000000     0.0421057  
C        C      0.408000000000     0.264200000000     0.202200000000     0.0421057  
C        C      0.425700000000     0.140200000000     0.164100000000     0.0421057  
C        C      0.363700000000     0.549300000000     0.246100000000     0.0421057  
C        C      0.402200000000     0.514700000000     0.139600000000     0.0421057  
C        C      0.148300000000     0.265200000000     0.139100000000     0.0421057  
C        C      0.390900000000     0.614900000000     0.598600000000     0.0421057  
C        C      0.463300000000     0.660000000000     0.617200000000     0.0421057  
C        C      0.118400000000     0.815400000000     0.613000000000     0.0421057  
C        C      0.185700000000     0.514300000000     0.721700000000     0.0421057  
C        C      0.212000000000     0.587000000000     0.437000000000     0.0421057  
C        C      0.099300000000     0.651800000000     0.457800000000     0.0421057  
C        C      0.167100000000     0.593700000000     0.374000000000     0.0421057  
C        C      0.092000000000     0.735800000000     0.702200000000     0.0421057  
C        C      0.074300000000     0.859800000000     0.664100000000     0.0421057  
C        C      0.136300000000     0.450700000000     0.746100000000     0.0421057  
C        C      0.097800000000     0.485300000000     0.639600000000     0.0421057  
C        C      0.351700000000     0.734800000000     0.639100000000     0.0421057  
C        C      0.109100000000     0.114900000000     0.598600000000     0.0421057  
C        C      0.036700000000     0.160000000000     0.617200000000     0.0421057  
C        C      0.381600000000     0.315400000000     0.613000000000     0.0421057  
C        C      0.314300000000     0.014300000000     0.721700000000     0.0421057  
C        C      0.288000000000     0.087000000000     0.437000000000     0.0421057  
C        C      0.400700000000     0.151800000000     0.457800000000     0.0421057  
C        C      0.332900000000     0.093700000000     0.374000000000     0.0421057  
C        C      0.408000000000     0.235800000000     0.702200000000     0.0421057  
C        C      0.425700000000     0.359800000000     0.664100000000     0.0421057  
C        C      0.363700000000     0.950700000000     0.746100000000     0.0421057  
C        C      0.402200000000     0.985300000000     0.639600000000     0.0421057  
C        C      0.148300000000     0.234800000000     0.639100000000     0.0421057  
C        C      0.390900000000     0.885100000000     0.098600000000     0.0421057  
C        C      0.463300000000     0.840000000000     0.117200000000     0.0421057  
C        C      0.118400000000     0.684600000000     0.113000000000     0.0421057  
C        C      0.185700000000     0.985700000000     0.221700000000     0.0421057  
C        C      0.212000000000     0.913000000000     0.937000000000     0.0421057  
C        C      0.099300000000     0.848200000000     0.957800000000     0.0421057  
C        C      0.167100000000     0.906300000000     0.874000000000     0.0421057  
C        C      0.092000000000     0.764200000000     0.202200000000     0.0421057  
C        C      0.074300000000     0.640200000000     0.164100000000     0.0421057  
C        C      0.136300000000     0.049300000000     0.246100000000     0.0421057  
C        C      0.097800000000     0.014700000000     0.139600000000     0.0421057  
C        C      0.351700000000     0.765200000000     0.139100000000     0.0421057  
C        C      0.890900000000     0.614900000000     0.901400000000     0.0421057  
C        C      0.963300000000     0.660000000000     0.882800000000     0.0421057  
C        C      0.618400000000     0.815400000000     0.887000000000     0.0421057  
C        C      0.685700000000     0.514300000000     0.778300000000     0.0421057  
C        C      0.712000000000     0.587000000000     0.063000000000     0.0421057  
C        C      0.599300000000     0.651800000000     0.042200000000     0.0421057  
C        C      0.667100000000     0.593700000000     0.126000000000     0.0421057  
C        C      0.592000000000     0.735800000000     0.797800000000     0.0421057  
C        C      0.574300000000     0.859800000000     0.835900000000     0.0421057  
C        C      0.636300000000     0.450700000000     0.753900000000     0.0421057  
C        C      0.597800000000     0.485300000000     0.860400000000     0.0421057  
C        C      0.851700000000     0.734800000000     0.860900000000     0.0421057  
C        C      0.609100000000     0.385100000000     0.401400000000     0.0421057  
C        C      0.536700000000     0.340000000000     0.382800000000     0.0421057  
C        C      0.881600000000     0.184600000000     0.387000000000     0.0421057  
C        C      0.814300000000     0.485700000000     0.278300000000     0.0421057  
C        C      0.788000000000     0.413000000000     0.563000000000     0.0421057  
C        C      0.900700000000     0.348200000000     0.542200000000     0.0421057  
C        C      0.832900000000     0.406300000000     0.626000000000     0.0421057  
C        C      0.908000000000     0.264200000000     0.297800000000     0.0421057  
C        C      0.925700000000     0.140200000000     0.335900000000     0.0421057  
C        C      0.863700000000     0.549300000000     0.253900000000     0.0421057  
C        C      0.902200000000     0.514700000000     0.360400000000     0.0421057  
C        C      0.648300000000     0.265200000000     0.360900000000     0.0421057  
N        N      0.819900000000     0.837300000000     0.387000000000    -0.168188   
N        N      0.630200000000     0.763800000000     0.361800000000    -0.168188   
N        N      0.661500000000     0.962000000000     0.345800000000    -0.168188   
N        N      0.667700000000     0.876200000000     0.507700000000    -0.168188   
N        N      0.594300000000     0.864800000000     0.612400000000    -0.168188   
N        N      0.557400000000     0.692100000000     0.279100000000    -0.168188   
N        N      0.580200000000     0.070100000000     0.308500000000    -0.168188   
N        N      0.936300000000     0.763600000000     0.354900000000    -0.168188   
N        N      0.680100000000     0.162700000000     0.887000000000    -0.168188   
N        N      0.869800000000     0.236200000000     0.861800000000    -0.168188   
N        N      0.838500000000     0.038000000000     0.845800000000    -0.168188   
N        N      0.832300000000     0.123800000000     0.007700000000    -0.168188   
N        N      0.905700000000     0.135200000000     0.112400000000    -0.168188   
N        N      0.942600000000     0.307900000000     0.779100000000    -0.168188   
N        N      0.919800000000     0.929900000000     0.808500000000    -0.168188   
N        N      0.563700000000     0.236400000000     0.854900000000    -0.168188   
N        N      0.180100000000     0.337300000000     0.113000000000    -0.168188   
N        N      0.369800000000     0.263800000000     0.138200000000    -0.168188   
N        N      0.338500000000     0.462000000000     0.154200000000    -0.168188   
N        N      0.332300000000     0.376200000000     0.992300000000    -0.168188   
N        N      0.405700000000     0.364800000000     0.887600000000    -0.168188   
N        N      0.442600000000     0.192100000000     0.220900000000    -0.168188   
N        N      0.419800000000     0.570100000000     0.191500000000    -0.168188   
N        N      0.063700000000     0.263600000000     0.145100000000    -0.168188   
N        N      0.319900000000     0.662700000000     0.613000000000    -0.168188   
N        N      0.130200000000     0.736200000000     0.638200000000    -0.168188   
N        N      0.161500000000     0.538000000000     0.654200000000    -0.168188   
N        N      0.167700000000     0.623800000000     0.492300000000    -0.168188   
N        N      0.094300000000     0.635200000000     0.387600000000    -0.168188   
N        N      0.057400000000     0.807900000000     0.720900000000    -0.168188   
N        N      0.080200000000     0.429900000000     0.691500000000    -0.168188   
N        N      0.436300000000     0.736400000000     0.645100000000    -0.168188   
N        N      0.180100000000     0.162700000000     0.613000000000    -0.168188   
N        N      0.369800000000     0.236200000000     0.638200000000    -0.168188   
N        N      0.338500000000     0.038000000000     0.654200000000    -0.168188   
N        N      0.332300000000     0.123800000000     0.492300000000    -0.168188   
N        N      0.405700000000     0.135200000000     0.387600000000    -0.168188   
N        N      0.442600000000     0.307900000000     0.720900000000    -0.168188   
N        N      0.419800000000     0.929900000000     0.691500000000    -0.168188   
N        N      0.063700000000     0.236400000000     0.645100000000    -0.168188   
N        N      0.319900000000     0.837300000000     0.113000000000    -0.168188   
N        N      0.130200000000     0.763800000000     0.138200000000    -0.168188   
N        N      0.161500000000     0.962000000000     0.154200000000    -0.168188   
N        N      0.167700000000     0.876200000000     0.992300000000    -0.168188   
N        N      0.094300000000     0.864800000000     0.887600000000    -0.168188   
N        N      0.057400000000     0.692100000000     0.220900000000    -0.168188   
N        N      0.080200000000     0.070100000000     0.191500000000    -0.168188   
N        N      0.436300000000     0.763600000000     0.145100000000    -0.168188   
N        N      0.819900000000     0.662700000000     0.887000000000    -0.168188   
N        N      0.630200000000     0.736200000000     0.861800000000    -0.168188   
N        N      0.661500000000     0.538000000000     0.845800000000    -0.168188   
N        N      0.667700000000     0.623800000000     0.007700000000    -0.168188   
N        N      0.594300000000     0.635200000000     0.112400000000    -0.168188   
N        N      0.557400000000     0.807900000000     0.779100000000    -0.168188   
N        N      0.580200000000     0.429900000000     0.808500000000    -0.168188   
N        N      0.936300000000     0.736400000000     0.854900000000    -0.168188   
N        N      0.680100000000     0.337300000000     0.387000000000    -0.168188   
N        N      0.869800000000     0.263800000000     0.361800000000    -0.168188   
N        N      0.838500000000     0.462000000000     0.345800000000    -0.168188   
N        N      0.832300000000     0.376200000000     0.507700000000    -0.168188   
N        N      0.905700000000     0.364800000000     0.612400000000    -0.168188   
N        N      0.942600000000     0.192100000000     0.279100000000    -0.168188   
N        N      0.919800000000     0.570100000000     0.308500000000    -0.168188   
N        N      0.563700000000     0.263600000000     0.354900000000    -0.168188   


