data_GOMRAC_original

_audit_creation_method RASPA-1.0
_audit_creation_date 2022-1-29
_audit_author_name 'Felipe Lopes de Oliveira <felipe.lopes.oliveira@ibm.com>'

_cell_length_a    9.8504
_cell_length_b    9.8504
_cell_length_c    15.21
_cell_angle_alpha 74.4619
_cell_angle_beta  74.4619
_cell_angle_gamma 83.1932
_cell_volume      1368.19

_symmetry_cell_setting          triclinic
_symmetry_space_group_name_Hall 'P 1'
_symmetry_space_group_name_H-M  'P 1'
_symmetry_Int_Tables_number     1

_symmetry_equiv_pos_as_xyz 'x,y,z'

loop_
_atom_site_label
_atom_site_type_symbol
_atom_site_fract_x
_atom_site_fract_y
_atom_site_fract_z
_atom_site_charge
Al       Al     0.934330000000     0.315370000000     0.123890000000     5.42908    
Al       Al     0.023630000000     0.810110000000     0.162790000000     5.42908    
Al       Al     0.122820000000     0.375060000000     0.417990000000     5.42908    
Al       Al     0.684630000000     0.065670000000     0.376110000000     5.42908    
Al       Al     0.189890000000     0.976370000000     0.337210000000     5.42908    
Al       Al     0.624940000000     0.877180000000     0.082010000000     5.42908    
Al       Al     0.065670000000     0.684630000000     0.876110000000     5.42908    
Al       Al     0.976370000000     0.189890000000     0.837210000000     5.42908    
Al       Al     0.877180000000     0.624940000000     0.582010000000     5.42908    
Al       Al     0.315370000000     0.934330000000     0.623890000000     5.42908    
Al       Al     0.810110000000     0.023630000000     0.662790000000     5.42908    
Al       Al     0.375060000000     0.122820000000     0.917990000000     5.42908    
P        P      0.310390000000     0.938270000000     0.127720000000     1.47381    
P        P      0.866650000000     0.641190000000     0.079130000000     1.47381    
P        P      0.958390000000     0.223310000000     0.329880000000     1.47381    
P        P      0.061730000000     0.689610000000     0.372280000000     1.47381    
P        P      0.358810000000     0.133350000000     0.420870000000     1.47381    
P        P      0.776690000000     0.041610000000     0.170120000000     1.47381    
P        P      0.689610000000     0.061730000000     0.872280000000     1.47381    
P        P      0.133350000000     0.358810000000     0.920870000000     1.47381    
P        P      0.041610000000     0.776690000000     0.670120000000     1.47381    
P        P      0.938270000000     0.310390000000     0.627720000000     1.47381    
P        P      0.641190000000     0.866650000000     0.579130000000     1.47381    
P        P      0.223310000000     0.958390000000     0.829880000000     1.47381    
O        O      0.201400000000     0.854400000000     0.113300000000    -1.72572    
O        O      0.439800000000     0.838400000000     0.136400000000    -1.72572    
O        O      0.251800000000     0.995800000000     0.214500000000    -1.72572    
O        O      0.845900000000     0.484900000000     0.110400000000    -1.72572    
O        O      0.010100000000     0.270900000000     0.223100000000    -1.72572    
O        O      0.980200000000     0.675200000000     0.120500000000    -1.72572    
O        O      0.913200000000     0.685800000000     0.972800000000    -1.72572    
O        O      0.982700000000     0.335100000000     0.374100000000    -1.72572    
O        O      0.351100000000     0.065900000000     0.045700000000    -1.72572    
O        O      0.727200000000     0.715200000000     0.112700000000    -1.72572    
O        O      0.038200000000     0.086600000000     0.363500000000    -1.72572    
O        O      0.799100000000     0.201300000000     0.359900000000    -1.72572    
O        O      0.145600000000     0.798600000000     0.386700000000    -1.72572    
O        O      0.161600000000     0.560200000000     0.363600000000    -1.72572    
O        O      0.004200000000     0.748200000000     0.285500000000    -1.72572    
O        O      0.515100000000     0.154100000000     0.389600000000    -1.72572    
O        O      0.729100000000     0.989900000000     0.276900000000    -1.72572    
O        O      0.324800000000     0.019800000000     0.379500000000    -1.72572    
O        O      0.314200000000     0.086800000000     0.527200000000    -1.72572    
O        O      0.664900000000     0.017300000000     0.125900000000    -1.72572    
O        O      0.934100000000     0.648900000000     0.454300000000    -1.72572    
O        O      0.284800000000     0.272800000000     0.387300000000    -1.72572    
O        O      0.913400000000     0.961800000000     0.136500000000    -1.72572    
O        O      0.798700000000     0.200900000000     0.140100000000    -1.72572    
O        O      0.798600000000     0.145600000000     0.886700000000    -1.72572    
O        O      0.560200000000     0.161600000000     0.863600000000    -1.72572    
O        O      0.748200000000     0.004200000000     0.785500000000    -1.72572    
O        O      0.154100000000     0.515100000000     0.889600000000    -1.72572    
O        O      0.989900000000     0.729100000000     0.776900000000    -1.72572    
O        O      0.019800000000     0.324800000000     0.879500000000    -1.72572    
O        O      0.086800000000     0.314200000000     0.027200000000    -1.72572    
O        O      0.017300000000     0.664900000000     0.625900000000    -1.72572    
O        O      0.648900000000     0.934100000000     0.954300000000    -1.72572    
O        O      0.272800000000     0.284800000000     0.887300000000    -1.72572    
O        O      0.961800000000     0.913400000000     0.636500000000    -1.72572    
O        O      0.200900000000     0.798700000000     0.640100000000    -1.72572    
O        O      0.854400000000     0.201400000000     0.613300000000    -1.72572    
O        O      0.838400000000     0.439800000000     0.636400000000    -1.72572    
O        O      0.995800000000     0.251800000000     0.714500000000    -1.72572    
O        O      0.484900000000     0.845900000000     0.610400000000    -1.72572    
O        O      0.270900000000     0.010100000000     0.723100000000    -1.72572    
O        O      0.675200000000     0.980200000000     0.620500000000    -1.72572    
O        O      0.685800000000     0.913200000000     0.472800000000    -1.72572    
O        O      0.335100000000     0.982700000000     0.874100000000    -1.72572    
O        O      0.065900000000     0.351100000000     0.545700000000    -1.72572    
O        O      0.715200000000     0.727200000000     0.612700000000    -1.72572    
O        O      0.086600000000     0.038200000000     0.863500000000    -1.72572    
O        O      0.201300000000     0.799100000000     0.859900000000    -1.72572    


