data_GUXLIU_original

_audit_creation_method RASPA-1.0
_audit_creation_date 2022-2-1
_audit_author_name 'Felipe Lopes de Oliveira <felipe.lopes.oliveira@ibm.com>'

_cell_length_a    4.9387
_cell_length_b    8.1856
_cell_length_c    12.06
_cell_angle_alpha 90
_cell_angle_beta  90
_cell_angle_gamma 92.045
_cell_volume      487.23

_symmetry_cell_setting          triclinic
_symmetry_space_group_name_Hall 'P 1'
_symmetry_space_group_name_H-M  'P 1'
_symmetry_Int_Tables_number     1

_symmetry_equiv_pos_as_xyz 'x,y,z'

loop_
_atom_site_label
_atom_site_type_symbol
_atom_site_fract_x
_atom_site_fract_y
_atom_site_fract_z
_atom_site_charge
Al       Al     0.754400000000     0.861800000000     0.250000000000     6.19005    
Al       Al     0.245600000000     0.138200000000     0.750000000000     6.19005    
Al       Al     0.500000000000     0.000000000000     0.500000000000     6.19005    
Al       Al     0.500000000000     0.000000000000     0.000000000000     6.19005    
P        P      0.991000000000     0.765900000000     0.482470000000     1.13151    
P        P      0.009000000000     0.234100000000     0.982470000000     1.13151    
P        P      0.009000000000     0.234100000000     0.517530000000     1.13151    
P        P      0.991000000000     0.765900000000     0.017530000000     1.13151    
H        H      0.696000000000     0.551000000000     0.528000000000    -0.00105064 
H        H      0.937000000000     0.565000000000     0.618000000000    -0.00105064 
H        H      0.304000000000     0.449000000000     0.028000000000    -0.00105064 
H        H      0.063000000000     0.435000000000     0.118000000000    -0.00105064 
H        H      0.304000000000     0.449000000000     0.472000000000    -0.00105064 
H        H      0.063000000000     0.435000000000     0.382000000000    -0.00105064 
H        H      0.696000000000     0.551000000000     0.972000000000    -0.00105064 
H        H      0.937000000000     0.565000000000     0.882000000000    -0.00105064 
C        C      0.918000000000     0.564400000000     0.531400000000    -0.196498   
C        C      0.082000000000     0.435600000000     0.031400000000    -0.196498   
C        C      0.082000000000     0.435600000000     0.468600000000    -0.196498   
C        C      0.918000000000     0.564400000000     0.968600000000    -0.196498   
O        O      0.797200000000     0.878200000000     0.541800000000    -1.60988    
O        O      0.282000000000     0.807700000000     0.508300000000    -1.60988    
O        O      0.946400000000     0.762900000000     0.357100000000    -1.60988    
O        O      0.202800000000     0.121800000000     0.041800000000    -1.60988    
O        O      0.718000000000     0.192300000000     0.008300000000    -1.60988    
O        O      0.053600000000     0.237100000000     0.857100000000    -1.60988    
O        O      0.202800000000     0.121800000000     0.458200000000    -1.60988    
O        O      0.718000000000     0.192300000000     0.491700000000    -1.60988    
O        O      0.053600000000     0.237100000000     0.642900000000    -1.60988    
O        O      0.797200000000     0.878200000000     0.958200000000    -1.60988    
O        O      0.282000000000     0.807700000000     0.991700000000    -1.60988    
O        O      0.946400000000     0.762900000000     0.142900000000    -1.60988    
F        F      0.557200000000     0.964200000000     0.352800000000    -2.2933     
F        F      0.442800000000     0.035800000000     0.852800000000    -2.2933     
F        F      0.442800000000     0.035800000000     0.647200000000    -2.2933     
F        F      0.557200000000     0.964200000000     0.147200000000    -2.2933     


