data_GUYLOC_original

_audit_creation_method RASPA-1.0
_audit_creation_date 2022-1-29
_audit_author_name 'Felipe Lopes de Oliveira <felipe.lopes.oliveira@ibm.com>'

_cell_length_a    13.944
_cell_length_b    14.102
_cell_length_c    14.102
_cell_angle_alpha 86.9198
_cell_angle_beta  70.633
_cell_angle_gamma 70.633
_cell_volume      2463.11

_symmetry_cell_setting          triclinic
_symmetry_space_group_name_Hall 'P 1'
_symmetry_space_group_name_H-M  'P 1'
_symmetry_Int_Tables_number     1

_symmetry_equiv_pos_as_xyz 'x,y,z'

loop_
_atom_site_label
_atom_site_type_symbol
_atom_site_fract_x
_atom_site_fract_y
_atom_site_fract_z
_atom_site_charge
Zn       Zn     0.867500000000     0.133490000000     0.824150000000     0.469266   
Zn       Zn     0.632500000000     0.175850000000     0.866510000000     0.469266   
Zn       Zn     0.132500000000     0.866510000000     0.175850000000     0.469266   
Zn       Zn     0.367500000000     0.824150000000     0.133490000000     0.469266   
H        H      0.558700000000     0.693400000000     0.900000000000     0.0530888  
H        H      0.525500000000     0.529800000000     0.901600000000     0.0530888  
H        H      0.970300000000     0.776600000000     0.811200000000     0.0530888  
H        H      0.932100000000     0.614200000000     0.824600000000     0.0530888  
H        H      0.208400000000     0.216900000000     0.712300000000     0.0530888  
H        H      0.050200000000     0.204400000000     0.699000000000     0.0530888  
H        H      0.000400000000     0.064300000000     0.960500000000     0.0530888  
H        H      0.158600000000     0.076800000000     0.974000000000     0.0530888  
H        H      0.941300000000     0.100000000000     0.306600000000     0.0530888  
H        H      0.974500000000     0.098400000000     0.470200000000     0.0530888  
H        H      0.529700000000     0.188800000000     0.223400000000     0.0530888  
H        H      0.567900000000     0.175400000000     0.385800000000     0.0530888  
H        H      0.291600000000     0.287700000000     0.783100000000     0.0530888  
H        H      0.449800000000     0.301000000000     0.795600000000     0.0530888  
H        H      0.499600000000     0.039500000000     0.935700000000     0.0530888  
H        H      0.341400000000     0.026000000000     0.923200000000     0.0530888  
H        H      0.441300000000     0.306600000000     0.100000000000     0.0530888  
H        H      0.474500000000     0.470200000000     0.098400000000     0.0530888  
H        H      0.029700000000     0.223400000000     0.188800000000     0.0530888  
H        H      0.067900000000     0.385800000000     0.175400000000     0.0530888  
H        H      0.791600000000     0.783100000000     0.287700000000     0.0530888  
H        H      0.949800000000     0.795600000000     0.301000000000     0.0530888  
H        H      0.999600000000     0.935700000000     0.039500000000     0.0530888  
H        H      0.841400000000     0.923200000000     0.026000000000     0.0530888  
H        H      0.058700000000     0.900000000000     0.693400000000     0.0530888  
H        H      0.025500000000     0.901600000000     0.529800000000     0.0530888  
H        H      0.470300000000     0.811200000000     0.776600000000     0.0530888  
H        H      0.432100000000     0.824600000000     0.614200000000     0.0530888  
H        H      0.708400000000     0.712300000000     0.216900000000     0.0530888  
H        H      0.550200000000     0.699000000000     0.204400000000     0.0530888  
H        H      0.500400000000     0.960500000000     0.064300000000     0.0530888  
H        H      0.658600000000     0.974000000000     0.076800000000     0.0530888  
C        C      0.798500000000     0.962400000000     0.840000000000     0.0251975  
C        C      0.701900000000     0.345500000000     0.850500000000     0.0251975  
C        C      0.686900000000     0.456200000000     0.855800000000     0.0251975  
C        C      0.722100000000     0.616300000000     0.851500000000     0.0251975  
C        C      0.811000000000     0.852200000000     0.836200000000     0.0251975  
C        C      0.614100000000     0.629600000000     0.882000000000     0.0251975  
C        C      0.595300000000     0.535500000000     0.883300000000     0.0251975  
C        C      0.773200000000     0.693400000000     0.840800000000     0.0251975  
C        C      0.900900000000     0.772000000000     0.823000000000     0.0251975  
C        C      0.879400000000     0.678500000000     0.828700000000     0.0251975  
C        C      0.166200000000     0.185900000000     0.762700000000     0.0251975  
C        C      0.072200000000     0.178470000000     0.754730000000     0.0251975  
C        C      0.042600000000     0.095250000000     0.910150000000     0.0251975  
C        C      0.136600000000     0.102700000000     0.918100000000     0.0251975  
C        C      0.198400000000     0.148000000000     0.844400000000     0.0251975  
C        C      0.701500000000     0.160000000000     0.037600000000     0.0251975  
C        C      0.798100000000     0.149500000000     0.654500000000     0.0251975  
C        C      0.813100000000     0.144200000000     0.543800000000     0.0251975  
C        C      0.777900000000     0.148500000000     0.383700000000     0.0251975  
C        C      0.689000000000     0.163800000000     0.147800000000     0.0251975  
C        C      0.885900000000     0.118000000000     0.370400000000     0.0251975  
C        C      0.904700000000     0.116700000000     0.464500000000     0.0251975  
C        C      0.726800000000     0.159200000000     0.306600000000     0.0251975  
C        C      0.599100000000     0.177000000000     0.228000000000     0.0251975  
C        C      0.620600000000     0.171300000000     0.321500000000     0.0251975  
C        C      0.333800000000     0.237300000000     0.814100000000     0.0251975  
C        C      0.427800000000     0.245270000000     0.821530000000     0.0251975  
C        C      0.457400000000     0.089850000000     0.904750000000     0.0251975  
C        C      0.363400000000     0.081900000000     0.897300000000     0.0251975  
C        C      0.301600000000     0.155600000000     0.852000000000     0.0251975  
C        C      0.201500000000     0.037600000000     0.160000000000     0.0251975  
C        C      0.298100000000     0.654500000000     0.149500000000     0.0251975  
C        C      0.313100000000     0.543800000000     0.144200000000     0.0251975  
C        C      0.277900000000     0.383700000000     0.148500000000     0.0251975  
C        C      0.189000000000     0.147800000000     0.163800000000     0.0251975  
C        C      0.385900000000     0.370400000000     0.118000000000     0.0251975  
C        C      0.404700000000     0.464500000000     0.116700000000     0.0251975  
C        C      0.226800000000     0.306600000000     0.159200000000     0.0251975  
C        C      0.099100000000     0.228000000000     0.177000000000     0.0251975  
C        C      0.120600000000     0.321500000000     0.171300000000     0.0251975  
C        C      0.833800000000     0.814100000000     0.237300000000     0.0251975  
C        C      0.927800000000     0.821530000000     0.245270000000     0.0251975  
C        C      0.957400000000     0.904750000000     0.089850000000     0.0251975  
C        C      0.863400000000     0.897300000000     0.081900000000     0.0251975  
C        C      0.801600000000     0.852000000000     0.155600000000     0.0251975  
C        C      0.298500000000     0.840000000000     0.962400000000     0.0251975  
C        C      0.201900000000     0.850500000000     0.345500000000     0.0251975  
C        C      0.186900000000     0.855800000000     0.456200000000     0.0251975  
C        C      0.222100000000     0.851500000000     0.616300000000     0.0251975  
C        C      0.311000000000     0.836200000000     0.852200000000     0.0251975  
C        C      0.114100000000     0.882000000000     0.629600000000     0.0251975  
C        C      0.095300000000     0.883300000000     0.535500000000     0.0251975  
C        C      0.273200000000     0.840800000000     0.693400000000     0.0251975  
C        C      0.400900000000     0.823000000000     0.772000000000     0.0251975  
C        C      0.379400000000     0.828700000000     0.678500000000     0.0251975  
C        C      0.666200000000     0.762700000000     0.185900000000     0.0251975  
C        C      0.572200000000     0.754730000000     0.178470000000     0.0251975  
C        C      0.542600000000     0.910150000000     0.095250000000     0.0251975  
C        C      0.636600000000     0.918100000000     0.102700000000     0.0251975  
C        C      0.698400000000     0.844400000000     0.148000000000     0.0251975  
S        S      0.699980000000     0.818650000000     0.850750000000     0.0364794  
S        S      0.800430000000     0.491330000000     0.824890000000     0.0364794  
S        S      0.800020000000     0.149250000000     0.181350000000     0.0364794  
S        S      0.699570000000     0.175110000000     0.508670000000     0.0364794  
S        S      0.300020000000     0.181350000000     0.149250000000     0.0364794  
S        S      0.199570000000     0.508670000000     0.175110000000     0.0364794  
S        S      0.199980000000     0.850750000000     0.818650000000     0.0364794  
S        S      0.300430000000     0.824890000000     0.491330000000     0.0364794  
N        N      0.010400000000     0.133140000000     0.828460000000    -0.148294   
N        N      0.489600000000     0.171540000000     0.866860000000    -0.148294   
N        N      0.989600000000     0.866860000000     0.171540000000    -0.148294   
N        N      0.510400000000     0.828460000000     0.133140000000    -0.148294   
O        O      0.880400000000     0.985470000000     0.829290000000    -0.299151   
O        O      0.618100000000     0.323520000000     0.874680000000    -0.299151   
O        O      0.706200000000     0.022680000000     0.852320000000    -0.299151   
O        O      0.796100000000     0.287300000000     0.825300000000    -0.299151   
O        O      0.619600000000     0.170710000000     0.014530000000    -0.299151   
O        O      0.881900000000     0.125320000000     0.676480000000    -0.299151   
O        O      0.793800000000     0.147680000000     0.977320000000    -0.299151   
O        O      0.703900000000     0.174700000000     0.712700000000    -0.299151   
O        O      0.119600000000     0.014530000000     0.170710000000    -0.299151   
O        O      0.381900000000     0.676480000000     0.125320000000    -0.299151   
O        O      0.293800000000     0.977320000000     0.147680000000    -0.299151   
O        O      0.203900000000     0.712700000000     0.174700000000    -0.299151   
O        O      0.380400000000     0.829290000000     0.985470000000    -0.299151   
O        O      0.118100000000     0.874680000000     0.323520000000    -0.299151   
O        O      0.206200000000     0.852320000000     0.022680000000    -0.299151   
O        O      0.296100000000     0.825300000000     0.287300000000    -0.299151   


