data_GUYLUI01_original

_audit_creation_method RASPA-1.0
_audit_creation_date 2022-1-29
_audit_author_name 'Felipe Lopes de Oliveira <felipe.lopes.oliveira@ibm.com>'

_cell_length_a    9.4874
_cell_length_b    14.049
_cell_length_c    14.049
_cell_angle_alpha 101.59
_cell_angle_beta  101.991
_cell_angle_gamma 101.991
_cell_volume      1732.47

_symmetry_cell_setting          triclinic
_symmetry_space_group_name_Hall 'P 1'
_symmetry_space_group_name_H-M  'P 1'
_symmetry_Int_Tables_number     1

_symmetry_equiv_pos_as_xyz 'x,y,z'

loop_
_atom_site_label
_atom_site_type_symbol
_atom_site_fract_x
_atom_site_fract_y
_atom_site_fract_z
_atom_site_charge
Zn       Zn     0.911200000000     0.277170000000     0.824210000000     0.467001   
Zn       Zn     0.588800000000     0.175790000000     0.722830000000     0.467001   
Zn       Zn     0.088800000000     0.722830000000     0.175790000000     0.467001   
Zn       Zn     0.411200000000     0.824210000000     0.277170000000     0.467001   
H        H      0.487200000000     0.660800000000     0.749400000000     0.0550791  
H        H      0.968800000000     0.821800000000     0.926600000000     0.0550791  
H        H      0.443800000000     0.480400000000     0.734400000000     0.0550791  
H        H      0.026200000000     0.995100000000     0.913500000000     0.0550791  
H        H      0.328100000000     0.584500000000     0.975900000000     0.0550791  
H        H      0.452400000000     0.332600000000     0.972800000000     0.0550791  
H        H      0.087800000000     0.490600000000     0.905400000000     0.0550791  
H        H      0.208400000000     0.245300000000     0.906300000000     0.0550791  
H        H      0.012800000000     0.250600000000     0.339200000000     0.0550791  
H        H      0.531200000000     0.073400000000     0.178200000000     0.0550791  
H        H      0.056200000000     0.265600000000     0.519600000000     0.0550791  
H        H      0.473800000000     0.086500000000     0.004900000000     0.0550791  
H        H      0.171900000000     0.024100000000     0.415500000000     0.0550791  
H        H      0.047600000000     0.027200000000     0.667400000000     0.0550791  
H        H      0.412200000000     0.094600000000     0.509400000000     0.0550791  
H        H      0.291600000000     0.093700000000     0.754700000000     0.0550791  
H        H      0.512800000000     0.339200000000     0.250600000000     0.0550791  
H        H      0.031200000000     0.178200000000     0.073400000000     0.0550791  
H        H      0.556200000000     0.519600000000     0.265600000000     0.0550791  
H        H      0.973800000000     0.004900000000     0.086500000000     0.0550791  
H        H      0.671900000000     0.415500000000     0.024100000000     0.0550791  
H        H      0.547600000000     0.667400000000     0.027200000000     0.0550791  
H        H      0.912200000000     0.509400000000     0.094600000000     0.0550791  
H        H      0.791600000000     0.754700000000     0.093700000000     0.0550791  
H        H      0.987200000000     0.749400000000     0.660800000000     0.0550791  
H        H      0.468800000000     0.926600000000     0.821800000000     0.0550791  
H        H      0.943800000000     0.734400000000     0.480400000000     0.0550791  
H        H      0.526200000000     0.913500000000     0.995100000000     0.0550791  
H        H      0.828100000000     0.975900000000     0.584500000000     0.0550791  
H        H      0.952400000000     0.972800000000     0.332600000000     0.0550791  
H        H      0.587800000000     0.905400000000     0.490600000000     0.0550791  
H        H      0.708400000000     0.906300000000     0.245300000000     0.0550791  
C        C      0.779900000000     0.786470000000     0.813130000000     0.0241352  
C        C      0.666900000000     0.497220000000     0.780620000000     0.0241352  
C        C      0.691400000000     0.396350000000     0.778930000000     0.0241352  
C        C      0.563400000000     0.629550000000     0.764250000000     0.0241352  
C        C      0.818900000000     0.061110000000     0.785330000000     0.0241352  
C        C      0.908600000000     0.845480000000     0.880720000000     0.0241352  
C        C      0.538200000000     0.525110000000     0.755290000000     0.0241352  
C        C      0.421500000000     0.469990000000     0.977290000000     0.0241352  
C        C      0.834800000000     0.963470000000     0.802890000000     0.0241352  
C        C      0.710700000000     0.679930000000     0.796870000000     0.0241352  
C        C      0.941200000000     0.945980000000     0.873820000000     0.0241352  
C        C      0.307700000000     0.514600000000     0.959400000000     0.0241352  
C        C      0.380500000000     0.367200000000     0.958200000000     0.0241352  
C        C      0.162700000000     0.457600000000     0.917400000000     0.0241352  
C        C      0.233200000000     0.315000000000     0.917400000000     0.0241352  
C        C      0.720100000000     0.186870000000     0.213530000000     0.0241352  
C        C      0.833100000000     0.219380000000     0.502780000000     0.0241352  
C        C      0.808600000000     0.221070000000     0.603650000000     0.0241352  
C        C      0.936600000000     0.235750000000     0.370450000000     0.0241352  
C        C      0.681100000000     0.214670000000     0.938890000000     0.0241352  
C        C      0.591400000000     0.119280000000     0.154520000000     0.0241352  
C        C      0.961800000000     0.244710000000     0.474890000000     0.0241352  
C        C      0.078500000000     0.022710000000     0.530010000000     0.0241352  
C        C      0.665200000000     0.197110000000     0.036530000000     0.0241352  
C        C      0.789300000000     0.203130000000     0.320070000000     0.0241352  
C        C      0.558800000000     0.126180000000     0.054020000000     0.0241352  
C        C      0.192300000000     0.040600000000     0.485400000000     0.0241352  
C        C      0.119500000000     0.041800000000     0.632800000000     0.0241352  
C        C      0.337300000000     0.082600000000     0.542400000000     0.0241352  
C        C      0.266800000000     0.082600000000     0.685000000000     0.0241352  
C        C      0.220100000000     0.213530000000     0.186870000000     0.0241352  
C        C      0.333100000000     0.502780000000     0.219380000000     0.0241352  
C        C      0.308600000000     0.603650000000     0.221070000000     0.0241352  
C        C      0.436600000000     0.370450000000     0.235750000000     0.0241352  
C        C      0.181100000000     0.938890000000     0.214670000000     0.0241352  
C        C      0.091400000000     0.154520000000     0.119280000000     0.0241352  
C        C      0.461800000000     0.474890000000     0.244710000000     0.0241352  
C        C      0.578500000000     0.530010000000     0.022710000000     0.0241352  
C        C      0.165200000000     0.036530000000     0.197110000000     0.0241352  
C        C      0.289300000000     0.320070000000     0.203130000000     0.0241352  
C        C      0.058800000000     0.054020000000     0.126180000000     0.0241352  
C        C      0.692300000000     0.485400000000     0.040600000000     0.0241352  
C        C      0.619500000000     0.632800000000     0.041800000000     0.0241352  
C        C      0.837300000000     0.542400000000     0.082600000000     0.0241352  
C        C      0.766800000000     0.685000000000     0.082600000000     0.0241352  
C        C      0.279900000000     0.813130000000     0.786470000000     0.0241352  
C        C      0.166900000000     0.780620000000     0.497220000000     0.0241352  
C        C      0.191400000000     0.778930000000     0.396350000000     0.0241352  
C        C      0.063400000000     0.764250000000     0.629550000000     0.0241352  
C        C      0.318900000000     0.785330000000     0.061110000000     0.0241352  
C        C      0.408600000000     0.880720000000     0.845480000000     0.0241352  
C        C      0.038200000000     0.755290000000     0.525110000000     0.0241352  
C        C      0.921500000000     0.977290000000     0.469990000000     0.0241352  
C        C      0.334800000000     0.802890000000     0.963470000000     0.0241352  
C        C      0.210700000000     0.796870000000     0.679930000000     0.0241352  
C        C      0.441200000000     0.873820000000     0.945980000000     0.0241352  
C        C      0.807700000000     0.959400000000     0.514600000000     0.0241352  
C        C      0.880500000000     0.958200000000     0.367200000000     0.0241352  
C        C      0.662700000000     0.917400000000     0.457600000000     0.0241352  
C        C      0.733200000000     0.917400000000     0.315000000000     0.0241352  
S        S      0.698260000000     0.854980000000     0.740220000000     0.0335152  
S        S      0.820030000000     0.598850000000     0.816990000000     0.0335152  
S        S      0.801740000000     0.259780000000     0.145020000000     0.0335152  
S        S      0.679970000000     0.183010000000     0.401150000000     0.0335152  
S        S      0.301740000000     0.145020000000     0.259780000000     0.0335152  
S        S      0.179970000000     0.401150000000     0.183010000000     0.0335152  
S        S      0.198260000000     0.740220000000     0.854980000000     0.0335152  
S        S      0.320030000000     0.816990000000     0.598850000000     0.0335152  
N        N      0.125400000000     0.358380000000     0.893160000000    -0.165443   
N        N      0.374600000000     0.106840000000     0.641620000000    -0.165443   
N        N      0.874600000000     0.641620000000     0.106840000000    -0.165443   
N        N      0.625400000000     0.893160000000     0.358380000000    -0.165443   
O        O      0.928000000000     0.136470000000     0.829110000000    -0.292812   
O        O      0.824900000000     0.393350000000     0.802710000000    -0.292812   
O        O      0.578100000000     0.322660000000     0.753720000000    -0.292812   
O        O      0.697300000000     0.061790000000     0.730330000000    -0.292812   
O        O      0.572000000000     0.170890000000     0.863530000000    -0.292812   
O        O      0.675100000000     0.197290000000     0.606650000000    -0.292812   
O        O      0.921900000000     0.246280000000     0.677340000000    -0.292812   
O        O      0.802700000000     0.269670000000     0.938210000000    -0.292812   
O        O      0.072000000000     0.863530000000     0.170890000000    -0.292812   
O        O      0.175100000000     0.606650000000     0.197290000000    -0.292812   
O        O      0.421900000000     0.677340000000     0.246280000000    -0.292812   
O        O      0.302700000000     0.938210000000     0.269670000000    -0.292812   
O        O      0.428000000000     0.829110000000     0.136470000000    -0.292812   
O        O      0.324900000000     0.802710000000     0.393350000000    -0.292812   
O        O      0.078100000000     0.753720000000     0.322660000000    -0.292812   
O        O      0.197300000000     0.730330000000     0.061790000000    -0.292812   


