data_HAFQUC_original

_audit_creation_method RASPA-1.0
_audit_creation_date 2022-1-30
_audit_author_name 'Felipe Lopes de Oliveira <felipe.lopes.oliveira@ibm.com>'

_cell_length_a    6.6439
_cell_length_b    14.954
_cell_length_c    15.089
_cell_angle_alpha 90
_cell_angle_beta  90
_cell_angle_gamma 90.891
_cell_volume      1498.95

_symmetry_cell_setting          triclinic
_symmetry_space_group_name_Hall 'P 1'
_symmetry_space_group_name_H-M  'P 1'
_symmetry_Int_Tables_number     1

_symmetry_equiv_pos_as_xyz 'x,y,z'

loop_
_atom_site_label
_atom_site_type_symbol
_atom_site_fract_x
_atom_site_fract_y
_atom_site_fract_z
_atom_site_charge
Al       Al     0.000000000000     0.000000000000     0.000000000000     5.9529     
Al       Al     0.500000000000     0.500000000000     0.500000000000     5.9529     
Al       Al     0.500000000000     0.000000000000     0.000000000000     5.9529     
Al       Al     0.000000000000     0.500000000000     0.500000000000     5.9529     
H        H      0.749140000000     0.896540000000     0.027530000000     0.21435    
H        H      0.568690000000     0.214580000000     0.374710000000     0.21435    
H        H      0.576270000000     0.112460000000     0.259420000000     0.21435    
H        H      0.934980000000     0.378920000000     0.238340000000     0.21435    
H        H      0.942670000000     0.276860000000     0.123000000000     0.21435    
H        H      0.750860000000     0.603460000000     0.527530000000     0.21435    
H        H      0.931310000000     0.285420000000     0.874710000000     0.21435    
H        H      0.923730000000     0.387540000000     0.759420000000     0.21435    
H        H      0.565020000000     0.121080000000     0.738340000000     0.21435    
H        H      0.557330000000     0.223140000000     0.623000000000     0.21435    
H        H      0.250860000000     0.103460000000     0.972470000000     0.21435    
H        H      0.431310000000     0.785420000000     0.625290000000     0.21435    
H        H      0.423730000000     0.887540000000     0.740580000000     0.21435    
H        H      0.065020000000     0.621080000000     0.761660000000     0.21435    
H        H      0.057330000000     0.723140000000     0.877000000000     0.21435    
H        H      0.249140000000     0.396540000000     0.472470000000     0.21435    
H        H      0.068690000000     0.714580000000     0.125290000000     0.21435    
H        H      0.076270000000     0.612460000000     0.240580000000     0.21435    
H        H      0.434980000000     0.878920000000     0.261660000000     0.21435    
H        H      0.442670000000     0.776860000000     0.377000000000     0.21435    
C        C      0.735910000000     0.374930000000     0.389660000000     0.184838   
C        C      0.747280000000     0.307530000000     0.316770000000     0.184838   
C        C      0.642740000000     0.227370000000     0.323800000000     0.184838   
C        C      0.757770000000     0.120590000000     0.103820000000     0.184838   
C        C      0.760780000000     0.184450000000     0.179950000000     0.184838   
C        C      0.648290000000     0.166040000000     0.255100000000     0.184838   
C        C      0.861660000000     0.325600000000     0.242290000000     0.184838   
C        C      0.867340000000     0.264320000000     0.173540000000     0.184838   
C        C      0.764090000000     0.125070000000     0.889660000000     0.184838   
C        C      0.752720000000     0.192470000000     0.816770000000     0.184838   
C        C      0.857260000000     0.272630000000     0.823800000000     0.184838   
C        C      0.742230000000     0.379410000000     0.603820000000     0.184838   
C        C      0.739220000000     0.315550000000     0.679950000000     0.184838   
C        C      0.851710000000     0.333960000000     0.755100000000     0.184838   
C        C      0.638340000000     0.174400000000     0.742290000000     0.184838   
C        C      0.632660000000     0.235680000000     0.673540000000     0.184838   
C        C      0.264090000000     0.625070000000     0.610340000000     0.184838   
C        C      0.252720000000     0.692470000000     0.683230000000     0.184838   
C        C      0.357260000000     0.772630000000     0.676200000000     0.184838   
C        C      0.242230000000     0.879410000000     0.896180000000     0.184838   
C        C      0.239220000000     0.815550000000     0.820050000000     0.184838   
C        C      0.351710000000     0.833960000000     0.744900000000     0.184838   
C        C      0.138340000000     0.674400000000     0.757710000000     0.184838   
C        C      0.132660000000     0.735680000000     0.826460000000     0.184838   
C        C      0.235910000000     0.874930000000     0.110340000000     0.184838   
C        C      0.247280000000     0.807530000000     0.183230000000     0.184838   
C        C      0.142740000000     0.727370000000     0.176200000000     0.184838   
C        C      0.257770000000     0.620590000000     0.396180000000     0.184838   
C        C      0.260780000000     0.684450000000     0.320050000000     0.184838   
C        C      0.148290000000     0.666040000000     0.244900000000     0.184838   
C        C      0.361660000000     0.825600000000     0.257710000000     0.184838   
C        C      0.367340000000     0.764320000000     0.326460000000     0.184838   
O        O      0.750770000000     0.947990000000     0.010190000000    -1.70067    
O        O      0.925000000000     0.095440000000     0.074780000000    -1.70067    
O        O      0.883990000000     0.427650000000     0.398960000000    -1.70067    
O        O      0.588190000000     0.095440000000     0.075450000000    -1.70067    
O        O      0.579430000000     0.373910000000     0.436770000000    -1.70067    
O        O      0.749230000000     0.552010000000     0.510190000000    -1.70067    
O        O      0.575000000000     0.404560000000     0.574780000000    -1.70067    
O        O      0.616010000000     0.072350000000     0.898960000000    -1.70067    
O        O      0.911810000000     0.404560000000     0.575450000000    -1.70067    
O        O      0.920570000000     0.126090000000     0.936770000000    -1.70067    
O        O      0.249230000000     0.052010000000     0.989810000000    -1.70067    
O        O      0.075000000000     0.904560000000     0.925220000000    -1.70067    
O        O      0.116010000000     0.572350000000     0.601040000000    -1.70067    
O        O      0.411810000000     0.904560000000     0.924550000000    -1.70067    
O        O      0.420570000000     0.626090000000     0.563230000000    -1.70067    
O        O      0.250770000000     0.447990000000     0.489810000000    -1.70067    
O        O      0.425000000000     0.595440000000     0.425220000000    -1.70067    
O        O      0.383990000000     0.927650000000     0.101040000000    -1.70067    
O        O      0.088190000000     0.595440000000     0.424550000000    -1.70067    
O        O      0.079430000000     0.873910000000     0.063230000000    -1.70067    


