data_HAFVOB_original

_audit_creation_method RASPA-1.0
_audit_creation_date 2022-1-30
_audit_author_name 'Felipe Lopes de Oliveira <felipe.lopes.oliveira@ibm.com>'

_cell_length_a    9.5054
_cell_length_b    23.476
_cell_length_c    27.629
_cell_angle_alpha 90
_cell_angle_beta  90
_cell_angle_gamma 90
_cell_volume      6165.38

_symmetry_cell_setting          triclinic
_symmetry_space_group_name_Hall 'P 1'
_symmetry_space_group_name_H-M  'P 1'
_symmetry_Int_Tables_number     1

_symmetry_equiv_pos_as_xyz 'x,y,z'

loop_
_atom_site_label
_atom_site_type_symbol
_atom_site_fract_x
_atom_site_fract_y
_atom_site_fract_z
_atom_site_charge
Ca       Ca     0.349280000000     0.701440000000     0.872080000000     1.39634    
Ca       Ca     0.650720000000     0.798560000000     0.872080000000     1.39634    
Ca       Ca     0.349280000000     0.298560000000     0.627920000000     1.39634    
Ca       Ca     0.650720000000     0.201440000000     0.627920000000     1.39634    
Ca       Ca     0.650720000000     0.298560000000     0.127920000000     1.39634    
Ca       Ca     0.349280000000     0.201440000000     0.127920000000     1.39634    
Ca       Ca     0.650720000000     0.701440000000     0.372080000000     1.39634    
Ca       Ca     0.349280000000     0.798560000000     0.372080000000     1.39634    
Ca       Ca     0.000000000000     0.750000000000     0.893300000000     1.39634    
Ca       Ca     0.000000000000     0.250000000000     0.606700000000     1.39634    
Ca       Ca     0.000000000000     0.250000000000     0.106700000000     1.39634    
Ca       Ca     0.000000000000     0.750000000000     0.393300000000     1.39634    
P        P      0.311600000000     0.083720000000     0.838900000000     0.0594371  
P        P      0.688400000000     0.416280000000     0.838900000000     0.0594371  
P        P      0.311600000000     0.916280000000     0.661100000000     0.0594371  
P        P      0.688400000000     0.583720000000     0.661100000000     0.0594371  
P        P      0.688400000000     0.916280000000     0.161100000000     0.0594371  
P        P      0.311600000000     0.583720000000     0.161100000000     0.0594371  
P        P      0.688400000000     0.083720000000     0.338900000000     0.0594371  
P        P      0.311600000000     0.416280000000     0.338900000000     0.0594371  
H        H      0.447900000000     0.993900000000     0.794000000000     0.038096   
H        H      0.453700000000     0.894300000000     0.799400000000     0.038096   
H        H      0.145300000000     0.899600000000     0.898500000000     0.038096   
H        H      0.149200000000     0.997400000000     0.897600000000     0.038096   
H        H      0.432900000000     0.129600000000     0.922500000000     0.038096   
H        H      0.359400000000     0.163500000000     0.997200000000     0.038096   
H        H      0.953400000000     0.133100000000     0.959500000000     0.038096   
H        H      0.031700000000     0.098800000000     0.885100000000     0.038096   
H        H      0.259000000000     0.177600000000     0.779200000000     0.038096   
H        H      0.090600000000     0.206800000000     0.723900000000     0.038096   
H        H      0.876600000000     0.060200000000     0.743800000000     0.038096   
H        H      0.054500000000     0.029200000000     0.798400000000     0.038096   
H        H      0.552100000000     0.506100000000     0.794000000000     0.038096   
H        H      0.546300000000     0.605700000000     0.799400000000     0.038096   
H        H      0.854700000000     0.600400000000     0.898500000000     0.038096   
H        H      0.850800000000     0.502600000000     0.897600000000     0.038096   
H        H      0.567100000000     0.370400000000     0.922500000000     0.038096   
H        H      0.640600000000     0.336500000000     0.997200000000     0.038096   
H        H      0.046600000000     0.366900000000     0.959500000000     0.038096   
H        H      0.968300000000     0.401200000000     0.885100000000     0.038096   
H        H      0.741000000000     0.322400000000     0.779200000000     0.038096   
H        H      0.909400000000     0.293200000000     0.723900000000     0.038096   
H        H      0.123400000000     0.439800000000     0.743800000000     0.038096   
H        H      0.945500000000     0.470800000000     0.798400000000     0.038096   
H        H      0.447900000000     0.006100000000     0.706000000000     0.038096   
H        H      0.453700000000     0.105700000000     0.700600000000     0.038096   
H        H      0.145300000000     0.100400000000     0.601500000000     0.038096   
H        H      0.149200000000     0.002600000000     0.602400000000     0.038096   
H        H      0.432900000000     0.870400000000     0.577500000000     0.038096   
H        H      0.359400000000     0.836500000000     0.502800000000     0.038096   
H        H      0.953400000000     0.866900000000     0.540500000000     0.038096   
H        H      0.031700000000     0.901200000000     0.614900000000     0.038096   
H        H      0.259000000000     0.822400000000     0.720800000000     0.038096   
H        H      0.090600000000     0.793200000000     0.776100000000     0.038096   
H        H      0.876600000000     0.939800000000     0.756200000000     0.038096   
H        H      0.054500000000     0.970800000000     0.701600000000     0.038096   
H        H      0.552100000000     0.493900000000     0.706000000000     0.038096   
H        H      0.546300000000     0.394300000000     0.700600000000     0.038096   
H        H      0.854700000000     0.399600000000     0.601500000000     0.038096   
H        H      0.850800000000     0.497400000000     0.602400000000     0.038096   
H        H      0.567100000000     0.629600000000     0.577500000000     0.038096   
H        H      0.640600000000     0.663500000000     0.502800000000     0.038096   
H        H      0.046600000000     0.633100000000     0.540500000000     0.038096   
H        H      0.968300000000     0.598800000000     0.614900000000     0.038096   
H        H      0.741000000000     0.677600000000     0.720800000000     0.038096   
H        H      0.909400000000     0.706800000000     0.776100000000     0.038096   
H        H      0.123400000000     0.560200000000     0.756200000000     0.038096   
H        H      0.945500000000     0.529200000000     0.701600000000     0.038096   
H        H      0.552100000000     0.006100000000     0.206000000000     0.038096   
H        H      0.546300000000     0.105700000000     0.200600000000     0.038096   
H        H      0.854700000000     0.100400000000     0.101500000000     0.038096   
H        H      0.850800000000     0.002600000000     0.102400000000     0.038096   
H        H      0.567100000000     0.870400000000     0.077500000000     0.038096   
H        H      0.640600000000     0.836500000000     0.002800000000     0.038096   
H        H      0.046600000000     0.866900000000     0.040500000000     0.038096   
H        H      0.968300000000     0.901200000000     0.114900000000     0.038096   
H        H      0.741000000000     0.822400000000     0.220800000000     0.038096   
H        H      0.909400000000     0.793200000000     0.276100000000     0.038096   
H        H      0.123400000000     0.939800000000     0.256200000000     0.038096   
H        H      0.945500000000     0.970800000000     0.201600000000     0.038096   
H        H      0.447900000000     0.493900000000     0.206000000000     0.038096   
H        H      0.453700000000     0.394300000000     0.200600000000     0.038096   
H        H      0.145300000000     0.399600000000     0.101500000000     0.038096   
H        H      0.149200000000     0.497400000000     0.102400000000     0.038096   
H        H      0.432900000000     0.629600000000     0.077500000000     0.038096   
H        H      0.359400000000     0.663500000000     0.002800000000     0.038096   
H        H      0.953400000000     0.633100000000     0.040500000000     0.038096   
H        H      0.031700000000     0.598800000000     0.114900000000     0.038096   
H        H      0.259000000000     0.677600000000     0.220800000000     0.038096   
H        H      0.090600000000     0.706800000000     0.276100000000     0.038096   
H        H      0.876600000000     0.560200000000     0.256200000000     0.038096   
H        H      0.054500000000     0.529200000000     0.201600000000     0.038096   
H        H      0.552100000000     0.993900000000     0.294000000000     0.038096   
H        H      0.546300000000     0.894300000000     0.299400000000     0.038096   
H        H      0.854700000000     0.899600000000     0.398500000000     0.038096   
H        H      0.850800000000     0.997400000000     0.397600000000     0.038096   
H        H      0.567100000000     0.129600000000     0.422500000000     0.038096   
H        H      0.640600000000     0.163500000000     0.497200000000     0.038096   
H        H      0.046600000000     0.133100000000     0.459500000000     0.038096   
H        H      0.968300000000     0.098800000000     0.385100000000     0.038096   
H        H      0.741000000000     0.177600000000     0.279200000000     0.038096   
H        H      0.909400000000     0.206800000000     0.223900000000     0.038096   
H        H      0.123400000000     0.060200000000     0.243800000000     0.038096   
H        H      0.945500000000     0.029200000000     0.298400000000     0.038096   
H        H      0.447900000000     0.506100000000     0.294000000000     0.038096   
H        H      0.453700000000     0.605700000000     0.299400000000     0.038096   
H        H      0.145300000000     0.600400000000     0.398500000000     0.038096   
H        H      0.149200000000     0.502600000000     0.397600000000     0.038096   
H        H      0.432900000000     0.370400000000     0.422500000000     0.038096   
H        H      0.359400000000     0.336500000000     0.497200000000     0.038096   
H        H      0.953400000000     0.366900000000     0.459500000000     0.038096   
H        H      0.031700000000     0.401200000000     0.385100000000     0.038096   
H        H      0.259000000000     0.322400000000     0.279200000000     0.038096   
H        H      0.090600000000     0.293200000000     0.223900000000     0.038096   
H        H      0.876600000000     0.439800000000     0.243800000000     0.038096   
H        H      0.054500000000     0.470800000000     0.298400000000     0.038096   
C        C      0.299100000000     0.006300000000     0.844580000000     0.0216618  
C        C      0.387300000000     0.974900000000     0.816120000000     0.0216618  
C        C      0.389900000000     0.915300000000     0.818890000000     0.0216618  
C        C      0.299600000000     0.887300000000     0.850080000000     0.0216618  
C        C      0.209700000000     0.918700000000     0.877800000000     0.0216618  
C        C      0.209800000000     0.976700000000     0.876600000000     0.0216618  
C        C      0.310800000000     0.824400000000     0.854900000000     0.0216618  
C        C      0.238600000000     0.110000000000     0.896690000000     0.0216618  
C        C      0.335400000000     0.130100000000     0.930100000000     0.0216618  
C        C      0.291700000000     0.150900000000     0.974300000000     0.0216618  
C        C      0.148000000000     0.153600000000     0.985710000000     0.0216618  
C        C      0.051000000000     0.133000000000     0.952200000000     0.0216618  
C        C      0.098500000000     0.112100000000     0.908100000000     0.0216618  
C        C      0.099400000000     0.179500000000     0.031300000000     0.0216618  
C        C      0.170900000000     0.100800000000     0.795340000000     0.0216618  
C        C      0.181500000000     0.153400000000     0.772200000000     0.0216618  
C        C      0.081300000000     0.170800000000     0.739350000000     0.0216618  
C        C      0.968200000000     0.136700000000     0.728680000000     0.0216618  
C        C      0.954900000000     0.083900000000     0.750700000000     0.0216618  
C        C      0.060700000000     0.065900000000     0.784000000000     0.0216618  
C        C      0.857600000000     0.157400000000     0.694590000000     0.0216618  
C        C      0.700900000000     0.493700000000     0.844580000000     0.0216618  
C        C      0.612700000000     0.525100000000     0.816120000000     0.0216618  
C        C      0.610100000000     0.584700000000     0.818890000000     0.0216618  
C        C      0.700400000000     0.612700000000     0.850080000000     0.0216618  
C        C      0.790300000000     0.581300000000     0.877800000000     0.0216618  
C        C      0.790200000000     0.523300000000     0.876600000000     0.0216618  
C        C      0.689200000000     0.675600000000     0.854900000000     0.0216618  
C        C      0.761400000000     0.390000000000     0.896690000000     0.0216618  
C        C      0.664600000000     0.369900000000     0.930100000000     0.0216618  
C        C      0.708300000000     0.349100000000     0.974300000000     0.0216618  
C        C      0.852000000000     0.346400000000     0.985710000000     0.0216618  
C        C      0.949000000000     0.367000000000     0.952200000000     0.0216618  
C        C      0.901500000000     0.387900000000     0.908100000000     0.0216618  
C        C      0.900600000000     0.320500000000     0.031300000000     0.0216618  
C        C      0.829100000000     0.399200000000     0.795340000000     0.0216618  
C        C      0.818500000000     0.346600000000     0.772200000000     0.0216618  
C        C      0.918700000000     0.329200000000     0.739350000000     0.0216618  
C        C      0.031800000000     0.363300000000     0.728680000000     0.0216618  
C        C      0.045100000000     0.416100000000     0.750700000000     0.0216618  
C        C      0.939300000000     0.434100000000     0.784000000000     0.0216618  
C        C      0.142400000000     0.342600000000     0.694590000000     0.0216618  
C        C      0.299100000000     0.993700000000     0.655420000000     0.0216618  
C        C      0.387300000000     0.025100000000     0.683880000000     0.0216618  
C        C      0.389900000000     0.084700000000     0.681110000000     0.0216618  
C        C      0.299600000000     0.112700000000     0.649920000000     0.0216618  
C        C      0.209700000000     0.081300000000     0.622200000000     0.0216618  
C        C      0.209800000000     0.023300000000     0.623400000000     0.0216618  
C        C      0.310800000000     0.175600000000     0.645100000000     0.0216618  
C        C      0.238600000000     0.890000000000     0.603310000000     0.0216618  
C        C      0.335400000000     0.869900000000     0.569900000000     0.0216618  
C        C      0.291700000000     0.849100000000     0.525700000000     0.0216618  
C        C      0.148000000000     0.846400000000     0.514290000000     0.0216618  
C        C      0.051000000000     0.867000000000     0.547800000000     0.0216618  
C        C      0.098500000000     0.887900000000     0.591900000000     0.0216618  
C        C      0.099400000000     0.820500000000     0.468700000000     0.0216618  
C        C      0.170900000000     0.899200000000     0.704660000000     0.0216618  
C        C      0.181500000000     0.846600000000     0.727800000000     0.0216618  
C        C      0.081300000000     0.829200000000     0.760650000000     0.0216618  
C        C      0.968200000000     0.863300000000     0.771320000000     0.0216618  
C        C      0.954900000000     0.916100000000     0.749300000000     0.0216618  
C        C      0.060700000000     0.934100000000     0.716000000000     0.0216618  
C        C      0.857600000000     0.842600000000     0.805410000000     0.0216618  
C        C      0.700900000000     0.506300000000     0.655420000000     0.0216618  
C        C      0.612700000000     0.474900000000     0.683880000000     0.0216618  
C        C      0.610100000000     0.415300000000     0.681110000000     0.0216618  
C        C      0.700400000000     0.387300000000     0.649920000000     0.0216618  
C        C      0.790300000000     0.418700000000     0.622200000000     0.0216618  
C        C      0.790200000000     0.476700000000     0.623400000000     0.0216618  
C        C      0.689200000000     0.324400000000     0.645100000000     0.0216618  
C        C      0.761400000000     0.610000000000     0.603310000000     0.0216618  
C        C      0.664600000000     0.630100000000     0.569900000000     0.0216618  
C        C      0.708300000000     0.650900000000     0.525700000000     0.0216618  
C        C      0.852000000000     0.653600000000     0.514290000000     0.0216618  
C        C      0.949000000000     0.633000000000     0.547800000000     0.0216618  
C        C      0.901500000000     0.612100000000     0.591900000000     0.0216618  
C        C      0.900600000000     0.679500000000     0.468700000000     0.0216618  
C        C      0.829100000000     0.600800000000     0.704660000000     0.0216618  
C        C      0.818500000000     0.653400000000     0.727800000000     0.0216618  
C        C      0.918700000000     0.670800000000     0.760650000000     0.0216618  
C        C      0.031800000000     0.636700000000     0.771320000000     0.0216618  
C        C      0.045100000000     0.583900000000     0.749300000000     0.0216618  
C        C      0.939300000000     0.565900000000     0.716000000000     0.0216618  
C        C      0.142400000000     0.657400000000     0.805410000000     0.0216618  
C        C      0.700900000000     0.993700000000     0.155420000000     0.0216618  
C        C      0.612700000000     0.025100000000     0.183880000000     0.0216618  
C        C      0.610100000000     0.084700000000     0.181110000000     0.0216618  
C        C      0.700400000000     0.112700000000     0.149920000000     0.0216618  
C        C      0.790300000000     0.081300000000     0.122200000000     0.0216618  
C        C      0.790200000000     0.023300000000     0.123400000000     0.0216618  
C        C      0.689200000000     0.175600000000     0.145100000000     0.0216618  
C        C      0.761400000000     0.890000000000     0.103310000000     0.0216618  
C        C      0.664600000000     0.869900000000     0.069900000000     0.0216618  
C        C      0.708300000000     0.849100000000     0.025700000000     0.0216618  
C        C      0.852000000000     0.846400000000     0.014290000000     0.0216618  
C        C      0.949000000000     0.867000000000     0.047800000000     0.0216618  
C        C      0.901500000000     0.887900000000     0.091900000000     0.0216618  
C        C      0.900600000000     0.820500000000     0.968700000000     0.0216618  
C        C      0.829100000000     0.899200000000     0.204660000000     0.0216618  
C        C      0.818500000000     0.846600000000     0.227800000000     0.0216618  
C        C      0.918700000000     0.829200000000     0.260650000000     0.0216618  
C        C      0.031800000000     0.863300000000     0.271320000000     0.0216618  
C        C      0.045100000000     0.916100000000     0.249300000000     0.0216618  
C        C      0.939300000000     0.934100000000     0.216000000000     0.0216618  
C        C      0.142400000000     0.842600000000     0.305410000000     0.0216618  
C        C      0.299100000000     0.506300000000     0.155420000000     0.0216618  
C        C      0.387300000000     0.474900000000     0.183880000000     0.0216618  
C        C      0.389900000000     0.415300000000     0.181110000000     0.0216618  
C        C      0.299600000000     0.387300000000     0.149920000000     0.0216618  
C        C      0.209700000000     0.418700000000     0.122200000000     0.0216618  
C        C      0.209800000000     0.476700000000     0.123400000000     0.0216618  
C        C      0.310800000000     0.324400000000     0.145100000000     0.0216618  
C        C      0.238600000000     0.610000000000     0.103310000000     0.0216618  
C        C      0.335400000000     0.630100000000     0.069900000000     0.0216618  
C        C      0.291700000000     0.650900000000     0.025700000000     0.0216618  
C        C      0.148000000000     0.653600000000     0.014290000000     0.0216618  
C        C      0.051000000000     0.633000000000     0.047800000000     0.0216618  
C        C      0.098500000000     0.612100000000     0.091900000000     0.0216618  
C        C      0.099400000000     0.679500000000     0.968700000000     0.0216618  
C        C      0.170900000000     0.600800000000     0.204660000000     0.0216618  
C        C      0.181500000000     0.653400000000     0.227800000000     0.0216618  
C        C      0.081300000000     0.670800000000     0.260650000000     0.0216618  
C        C      0.968200000000     0.636700000000     0.271320000000     0.0216618  
C        C      0.954900000000     0.583900000000     0.249300000000     0.0216618  
C        C      0.060700000000     0.565900000000     0.216000000000     0.0216618  
C        C      0.857600000000     0.657400000000     0.305410000000     0.0216618  
C        C      0.700900000000     0.006300000000     0.344580000000     0.0216618  
C        C      0.612700000000     0.974900000000     0.316120000000     0.0216618  
C        C      0.610100000000     0.915300000000     0.318890000000     0.0216618  
C        C      0.700400000000     0.887300000000     0.350080000000     0.0216618  
C        C      0.790300000000     0.918700000000     0.377800000000     0.0216618  
C        C      0.790200000000     0.976700000000     0.376600000000     0.0216618  
C        C      0.689200000000     0.824400000000     0.354900000000     0.0216618  
C        C      0.761400000000     0.110000000000     0.396690000000     0.0216618  
C        C      0.664600000000     0.130100000000     0.430100000000     0.0216618  
C        C      0.708300000000     0.150900000000     0.474300000000     0.0216618  
C        C      0.852000000000     0.153600000000     0.485710000000     0.0216618  
C        C      0.949000000000     0.133000000000     0.452200000000     0.0216618  
C        C      0.901500000000     0.112100000000     0.408100000000     0.0216618  
C        C      0.900600000000     0.179500000000     0.531300000000     0.0216618  
C        C      0.829100000000     0.100800000000     0.295340000000     0.0216618  
C        C      0.818500000000     0.153400000000     0.272200000000     0.0216618  
C        C      0.918700000000     0.170800000000     0.239350000000     0.0216618  
C        C      0.031800000000     0.136700000000     0.228680000000     0.0216618  
C        C      0.045100000000     0.083900000000     0.250700000000     0.0216618  
C        C      0.939300000000     0.065900000000     0.284000000000     0.0216618  
C        C      0.142400000000     0.157400000000     0.194590000000     0.0216618  
C        C      0.299100000000     0.493700000000     0.344580000000     0.0216618  
C        C      0.387300000000     0.525100000000     0.316120000000     0.0216618  
C        C      0.389900000000     0.584700000000     0.318890000000     0.0216618  
C        C      0.299600000000     0.612700000000     0.350080000000     0.0216618  
C        C      0.209700000000     0.581300000000     0.377800000000     0.0216618  
C        C      0.209800000000     0.523300000000     0.376600000000     0.0216618  
C        C      0.310800000000     0.675600000000     0.354900000000     0.0216618  
C        C      0.238600000000     0.390000000000     0.396690000000     0.0216618  
C        C      0.335400000000     0.369900000000     0.430100000000     0.0216618  
C        C      0.291700000000     0.349100000000     0.474300000000     0.0216618  
C        C      0.148000000000     0.346400000000     0.485710000000     0.0216618  
C        C      0.051000000000     0.367000000000     0.452200000000     0.0216618  
C        C      0.098500000000     0.387900000000     0.408100000000     0.0216618  
C        C      0.099400000000     0.320500000000     0.531300000000     0.0216618  
C        C      0.170900000000     0.399200000000     0.295340000000     0.0216618  
C        C      0.181500000000     0.346600000000     0.272200000000     0.0216618  
C        C      0.081300000000     0.329200000000     0.239350000000     0.0216618  
C        C      0.968200000000     0.363300000000     0.228680000000     0.0216618  
C        C      0.954900000000     0.416100000000     0.250700000000     0.0216618  
C        C      0.060700000000     0.434100000000     0.284000000000     0.0216618  
C        C      0.857600000000     0.342600000000     0.194590000000     0.0216618  
O        O      0.214000000000     0.797790000000     0.876280000000    -0.471691   
O        O      0.418100000000     0.799050000000     0.838770000000    -0.471691   
O        O      0.969100000000     0.183600000000     0.039070000000    -0.471691   
O        O      0.188800000000     0.197510000000     0.062190000000    -0.471691   
O        O      0.887700000000     0.196550000000     0.665830000000    -0.471691   
O        O      0.736500000000     0.136000000000     0.695050000000    -0.471691   
O        O      0.786000000000     0.702210000000     0.876280000000    -0.471691   
O        O      0.581900000000     0.700950000000     0.838770000000    -0.471691   
O        O      0.030900000000     0.316400000000     0.039070000000    -0.471691   
O        O      0.811200000000     0.302490000000     0.062190000000    -0.471691   
O        O      0.112300000000     0.303450000000     0.665830000000    -0.471691   
O        O      0.263500000000     0.364000000000     0.695050000000    -0.471691   
O        O      0.214000000000     0.202210000000     0.623720000000    -0.471691   
O        O      0.418100000000     0.200950000000     0.661230000000    -0.471691   
O        O      0.969100000000     0.816400000000     0.460930000000    -0.471691   
O        O      0.188800000000     0.802490000000     0.437810000000    -0.471691   
O        O      0.887700000000     0.803450000000     0.834170000000    -0.471691   
O        O      0.736500000000     0.864000000000     0.804950000000    -0.471691   
O        O      0.786000000000     0.297790000000     0.623720000000    -0.471691   
O        O      0.581900000000     0.299050000000     0.661230000000    -0.471691   
O        O      0.030900000000     0.683600000000     0.460930000000    -0.471691   
O        O      0.811200000000     0.697510000000     0.437810000000    -0.471691   
O        O      0.112300000000     0.696550000000     0.834170000000    -0.471691   
O        O      0.263500000000     0.636000000000     0.804950000000    -0.471691   
O        O      0.786000000000     0.202210000000     0.123720000000    -0.471691   
O        O      0.581900000000     0.200950000000     0.161230000000    -0.471691   
O        O      0.030900000000     0.816400000000     0.960930000000    -0.471691   
O        O      0.811200000000     0.802490000000     0.937810000000    -0.471691   
O        O      0.112300000000     0.803450000000     0.334170000000    -0.471691   
O        O      0.263500000000     0.864000000000     0.304950000000    -0.471691   
O        O      0.214000000000     0.297790000000     0.123720000000    -0.471691   
O        O      0.418100000000     0.299050000000     0.161230000000    -0.471691   
O        O      0.969100000000     0.683600000000     0.960930000000    -0.471691   
O        O      0.188800000000     0.697510000000     0.937810000000    -0.471691   
O        O      0.887700000000     0.696550000000     0.334170000000    -0.471691   
O        O      0.736500000000     0.636000000000     0.304950000000    -0.471691   
O        O      0.786000000000     0.797790000000     0.376280000000    -0.471691   
O        O      0.581900000000     0.799050000000     0.338770000000    -0.471691   
O        O      0.030900000000     0.183600000000     0.539070000000    -0.471691   
O        O      0.811200000000     0.197510000000     0.562190000000    -0.471691   
O        O      0.112300000000     0.196550000000     0.165830000000    -0.471691   
O        O      0.263500000000     0.136000000000     0.195050000000    -0.471691   
O        O      0.214000000000     0.702210000000     0.376280000000    -0.471691   
O        O      0.418100000000     0.700950000000     0.338770000000    -0.471691   
O        O      0.969100000000     0.316400000000     0.539070000000    -0.471691   
O        O      0.188800000000     0.302490000000     0.562190000000    -0.471691   
O        O      0.887700000000     0.303450000000     0.165830000000    -0.471691   
O        O      0.736500000000     0.364000000000     0.195050000000    -0.471691   
O        O      0.500000000000     0.750000000000     0.933040000000    -0.471691   
O        O      0.500000000000     0.250000000000     0.566960000000    -0.471691   
O        O      0.500000000000     0.250000000000     0.066960000000    -0.471691   
O        O      0.500000000000     0.750000000000     0.433040000000    -0.471691   


