data_HAJLEK_original

_audit_creation_method RASPA-1.0
_audit_creation_date 2022-1-28
_audit_author_name 'Felipe Lopes de Oliveira <felipe.lopes.oliveira@ibm.com>'

_cell_length_a    10.962
_cell_length_b    15.0474
_cell_length_c    15.0475
_cell_angle_alpha 114.302
_cell_angle_beta  104.054
_cell_angle_gamma 104.053
_cell_volume      2022.8

_symmetry_cell_setting          triclinic
_symmetry_space_group_name_Hall 'P 1'
_symmetry_space_group_name_H-M  'P 1'
_symmetry_Int_Tables_number     1

_symmetry_equiv_pos_as_xyz 'x,y,z'

loop_
_atom_site_label
_atom_site_type_symbol
_atom_site_fract_x
_atom_site_fract_y
_atom_site_fract_z
_atom_site_charge
Fe       Fe     0.000000000000     0.500000000000     0.000000000000     0.60158    
Fe       Fe     0.000000000000     0.000000000000     0.500000000000     0.60158    
Fe       Fe     0.500000000000     0.500000000000     0.500000000000     0.60158    
H        H      0.767400000000     0.536300000000     0.877000000000     0.171152   
H        H      0.769300000000     0.293900000000     0.983200000000     0.171152   
H        H      0.617500000000     0.271800000000     0.980100000000     0.171152   
H        H      0.642400000000     0.200400000000     0.878400000000     0.171152   
H        H      0.564300000000     0.532900000000     0.769700000000     0.171152   
H        H      0.456900000000     0.414300000000     0.686400000000     0.171152   
H        H      0.434200000000     0.483700000000     0.790100000000     0.171152   
H        H      0.267000000000     0.239100000000     0.953700000000     0.171152   
H        H      0.424500000000     0.259500000000     0.976200000000     0.171152   
H        H      0.371300000000     0.350900000000     0.981700000000     0.171152   
H        H      0.275600000000     0.146300000000     0.515200000000     0.171152   
H        H      0.385100000000     0.265400000000     0.590200000000     0.171152   
H        H      0.428700000000     0.169000000000     0.581900000000     0.171152   
H        H      0.126200000000     0.135000000000     0.766800000000     0.171152   
H        H      0.232600000000     0.463700000000     0.123000000000     0.171152   
H        H      0.230700000000     0.706100000000     0.016800000000     0.171152   
H        H      0.382500000000     0.728200000000     0.019900000000     0.171152   
H        H      0.357600000000     0.799600000000     0.121600000000     0.171152   
H        H      0.435700000000     0.467100000000     0.230300000000     0.171152   
H        H      0.543100000000     0.585700000000     0.313600000000     0.171152   
H        H      0.565800000000     0.516300000000     0.209900000000     0.171152   
H        H      0.733000000000     0.760900000000     0.046300000000     0.171152   
H        H      0.575500000000     0.740500000000     0.023800000000     0.171152   
H        H      0.628700000000     0.649100000000     0.018300000000     0.171152   
H        H      0.724400000000     0.853700000000     0.484800000000     0.171152   
H        H      0.614900000000     0.734600000000     0.409800000000     0.171152   
H        H      0.571300000000     0.831000000000     0.418100000000     0.171152   
H        H      0.873800000000     0.865000000000     0.233200000000     0.171152   
H        H      0.890400000000     0.123000000000     0.659300000000     0.171152   
H        H      0.786100000000     0.016800000000     0.310700000000     0.171152   
H        H      0.637400000000     0.019900000000     0.291700000000     0.171152   
H        H      0.764000000000     0.121600000000     0.322000000000     0.171152   
H        H      0.794600000000     0.230300000000     0.763200000000     0.171152   
H        H      0.770500000000     0.313600000000     0.727900000000     0.171152   
H        H      0.644100000000     0.209900000000     0.693600000000     0.171152   
H        H      0.313300000000     0.046300000000     0.285400000000     0.171152   
H        H      0.448300000000     0.023800000000     0.283300000000     0.171152   
H        H      0.389600000000     0.018300000000     0.369200000000     0.171152   
H        H      0.760400000000     0.484800000000     0.631100000000     0.171152   
H        H      0.794900000000     0.409800000000     0.675200000000     0.171152   
H        H      0.846800000000     0.418100000000     0.587100000000     0.171152   
H        H      0.359400000000     0.233200000000     0.368200000000     0.171152   
H        H      0.109600000000     0.877000000000     0.340700000000     0.171152   
H        H      0.213900000000     0.983200000000     0.689300000000     0.171152   
H        H      0.362600000000     0.980100000000     0.708300000000     0.171152   
H        H      0.236000000000     0.878400000000     0.678000000000     0.171152   
H        H      0.205400000000     0.769700000000     0.236800000000     0.171152   
H        H      0.229500000000     0.686400000000     0.272100000000     0.171152   
H        H      0.355900000000     0.790100000000     0.306400000000     0.171152   
H        H      0.686700000000     0.953700000000     0.714600000000     0.171152   
H        H      0.551700000000     0.976200000000     0.716700000000     0.171152   
H        H      0.610400000000     0.981700000000     0.630800000000     0.171152   
H        H      0.239600000000     0.515200000000     0.368900000000     0.171152   
H        H      0.205100000000     0.590200000000     0.324800000000     0.171152   
H        H      0.153200000000     0.581900000000     0.412900000000     0.171152   
H        H      0.640600000000     0.766800000000     0.631800000000     0.171152   
H        H      0.231100000000     0.340700000000     0.463700000000     0.171152   
H        H      0.475400000000     0.689300000000     0.706100000000     0.171152   
H        H      0.345700000000     0.708300000000     0.728200000000     0.171152   
H        H      0.442000000000     0.678000000000     0.799600000000     0.171152   
H        H      0.031400000000     0.236800000000     0.467100000000     0.171152   
H        H      0.042600000000     0.272100000000     0.585700000000     0.171152   
H        H      0.950500000000     0.306400000000     0.516300000000     0.171152   
H        H      0.027900000000     0.714600000000     0.760900000000     0.171152   
H        H      0.165000000000     0.716700000000     0.740500000000     0.171152   
H        H      0.020400000000     0.630800000000     0.649100000000     0.171152   
H        H      0.129300000000     0.368900000000     0.853700000000     0.171152   
H        H      0.119700000000     0.324800000000     0.734600000000     0.171152   
H        H      0.259700000000     0.412900000000     0.831000000000     0.171152   
H        H      0.991200000000     0.631800000000     0.865000000000     0.171152   
H        H      0.768900000000     0.659300000000     0.536300000000     0.171152   
H        H      0.524600000000     0.310700000000     0.293900000000     0.171152   
H        H      0.654300000000     0.291700000000     0.271800000000     0.171152   
H        H      0.558000000000     0.322000000000     0.200400000000     0.171152   
H        H      0.968600000000     0.763200000000     0.532900000000     0.171152   
H        H      0.957400000000     0.727900000000     0.414300000000     0.171152   
H        H      0.049500000000     0.693600000000     0.483700000000     0.171152   
H        H      0.972100000000     0.285400000000     0.239100000000     0.171152   
H        H      0.835000000000     0.283300000000     0.259500000000     0.171152   
H        H      0.979600000000     0.369200000000     0.350900000000     0.171152   
H        H      0.870700000000     0.631100000000     0.146300000000     0.171152   
H        H      0.880300000000     0.675200000000     0.265400000000     0.171152   
H        H      0.740300000000     0.587100000000     0.169000000000     0.171152   
H        H      0.008800000000     0.368200000000     0.135000000000     0.171152   
C        C      0.012640000000     0.739280000000     0.085740000000    -0.14894    
C        C      0.662760000000     0.346890000000     0.898890000000    -0.14894    
C        C      0.541260000000     0.341220000000     0.831660000000    -0.14894    
C        C      0.581830000000     0.428590000000     0.819800000000    -0.14894    
C        C      0.673900000000     0.271650000000     0.938550000000    -0.14894    
C        C      0.502600000000     0.468100000000     0.761600000000    -0.14894    
C        C      0.318130000000     0.234260000000     0.830530000000    -0.14894    
C        C      0.400860000000     0.260480000000     0.781900000000    -0.14894    
C        C      0.315480000000     0.199600000000     0.671840000000    -0.14894    
C        C      0.347800000000     0.274350000000     0.945450000000    -0.14894    
C        C      0.354600000000     0.194620000000     0.582080000000    -0.14894    
C        C      0.987360000000     0.260720000000     0.914260000000    -0.14894    
C        C      0.337240000000     0.653110000000     0.101110000000    -0.14894    
C        C      0.458740000000     0.658780000000     0.168340000000    -0.14894    
C        C      0.418170000000     0.571410000000     0.180200000000    -0.14894    
C        C      0.326100000000     0.728350000000     0.061450000000    -0.14894    
C        C      0.497400000000     0.531900000000     0.238400000000    -0.14894    
C        C      0.681870000000     0.765740000000     0.169470000000    -0.14894    
C        C      0.599140000000     0.739520000000     0.218100000000    -0.14894    
C        C      0.684520000000     0.800400000000     0.328160000000    -0.14894    
C        C      0.652200000000     0.725650000000     0.054550000000    -0.14894    
C        C      0.645400000000     0.805380000000     0.417920000000    -0.14894    
C        C      0.926900000000     0.914260000000     0.653540000000    -0.14894    
C        C      0.763870000000     0.101110000000     0.448000000000    -0.14894    
C        C      0.709600000000     0.168340000000     0.509560000000    -0.14894    
C        C      0.762030000000     0.180200000000     0.608790000000    -0.14894    
C        C      0.735350000000     0.061450000000     0.333100000000    -0.14894    
C        C      0.741000000000     0.238400000000     0.706500000000    -0.14894    
C        C      0.487600000000     0.169470000000     0.403730000000    -0.14894    
C        C      0.618960000000     0.218100000000     0.478580000000    -0.14894    
C        C      0.643640000000     0.328160000000     0.527760000000    -0.14894    
C        C      0.402350000000     0.054550000000     0.328900000000    -0.14894    
C        C      0.772520000000     0.417920000000     0.612540000000    -0.14894    
C        C      0.073100000000     0.085740000000     0.346460000000    -0.14894    
C        C      0.236130000000     0.898890000000     0.552000000000    -0.14894    
C        C      0.290400000000     0.831660000000     0.490440000000    -0.14894    
C        C      0.237970000000     0.819800000000     0.391210000000    -0.14894    
C        C      0.264650000000     0.938550000000     0.666900000000    -0.14894    
C        C      0.259000000000     0.761600000000     0.293500000000    -0.14894    
C        C      0.512400000000     0.830530000000     0.596270000000    -0.14894    
C        C      0.381040000000     0.781900000000     0.521420000000    -0.14894    
C        C      0.356360000000     0.671840000000     0.472240000000    -0.14894    
C        C      0.597650000000     0.945450000000     0.671100000000    -0.14894    
C        C      0.227480000000     0.582080000000     0.387460000000    -0.14894    
C        C      0.273360000000     0.346460000000     0.260720000000    -0.14894    
C        C      0.315870000000     0.552000000000     0.653110000000    -0.14894    
C        C      0.200040000000     0.490440000000     0.658780000000    -0.14894    
C        C      0.153240000000     0.391210000000     0.571410000000    -0.14894    
C        C      0.402250000000     0.666900000000     0.728350000000    -0.14894    
C        C      0.034500000000     0.293500000000     0.531900000000    -0.14894    
C        C      0.083870000000     0.596270000000     0.765740000000    -0.14894    
C        C      0.140380000000     0.521420000000     0.739520000000    -0.14894    
C        C      0.115880000000     0.472240000000     0.800400000000    -0.14894    
C        C      0.073450000000     0.671100000000     0.725650000000    -0.14894    
C        C      0.159980000000     0.387460000000     0.805380000000    -0.14894    
C        C      0.726640000000     0.653540000000     0.739280000000    -0.14894    
C        C      0.684130000000     0.448000000000     0.346890000000    -0.14894    
C        C      0.799960000000     0.509560000000     0.341220000000    -0.14894    
C        C      0.846760000000     0.608790000000     0.428590000000    -0.14894    
C        C      0.597750000000     0.333100000000     0.271650000000    -0.14894    
C        C      0.965500000000     0.706500000000     0.468100000000    -0.14894    
C        C      0.916130000000     0.403730000000     0.234260000000    -0.14894    
C        C      0.859620000000     0.478580000000     0.260480000000    -0.14894    
C        C      0.884120000000     0.527760000000     0.199600000000    -0.14894    
C        C      0.926550000000     0.328900000000     0.274350000000    -0.14894    
C        C      0.840020000000     0.612540000000     0.194620000000    -0.14894    
S        S      0.045450000000     0.865730000000     0.143610000000    -0.105177   
S        S      0.954550000000     0.134270000000     0.856390000000    -0.105177   
S        S      0.901840000000     0.856390000000     0.722120000000    -0.105177   
S        S      0.098160000000     0.143610000000     0.277880000000    -0.105177   
S        S      0.179720000000     0.277880000000     0.134270000000    -0.105177   
S        S      0.820280000000     0.722120000000     0.865730000000    -0.105177   
N        N      0.991820000000     0.649350000000     0.044810000000    -0.19068    
N        N      0.770920000000     0.431440000000     0.924020000000    -0.19068    
N        N      0.718000000000     0.478800000000     0.874200000000    -0.19068    
N        N      0.190110000000     0.140470000000     0.654860000000    -0.19068    
N        N      0.195530000000     0.163530000000     0.754260000000    -0.19068    
N        N      0.008180000000     0.350650000000     0.955190000000    -0.19068    
N        N      0.229080000000     0.568560000000     0.075980000000    -0.19068    
N        N      0.282000000000     0.521200000000     0.125800000000    -0.19068    
N        N      0.809890000000     0.859530000000     0.345140000000    -0.19068    
N        N      0.804470000000     0.836470000000     0.245740000000    -0.19068    
N        N      0.947010000000     0.955190000000     0.604540000000    -0.19068    
N        N      0.846900000000     0.075980000000     0.507420000000    -0.19068    
N        N      0.843800000000     0.125800000000     0.604600000000    -0.19068    
N        N      0.535250000000     0.345140000000     0.485610000000    -0.19068    
N        N      0.441270000000     0.245740000000     0.409270000000    -0.19068    
N        N      0.052990000000     0.044810000000     0.395460000000    -0.19068    
N        N      0.153100000000     0.924020000000     0.492580000000    -0.19068    
N        N      0.156200000000     0.874200000000     0.395400000000    -0.19068    
N        N      0.464750000000     0.654860000000     0.514390000000    -0.19068    
N        N      0.558730000000     0.754260000000     0.590730000000    -0.19068    
N        N      0.342470000000     0.395460000000     0.350650000000    -0.19068    
N        N      0.339480000000     0.492580000000     0.568560000000    -0.19068    
N        N      0.239200000000     0.395400000000     0.521200000000    -0.19068    
N        N      0.049640000000     0.514390000000     0.859530000000    -0.19068    
N        N      0.032000000000     0.590730000000     0.836470000000    -0.19068    
N        N      0.657530000000     0.604540000000     0.649350000000    -0.19068    
N        N      0.660520000000     0.507420000000     0.431440000000    -0.19068    
N        N      0.760800000000     0.604600000000     0.478800000000    -0.19068    
N        N      0.950360000000     0.485610000000     0.140470000000    -0.19068    
N        N      0.968000000000     0.409270000000     0.163530000000    -0.19068    


