data_HAJLOU_original

_audit_creation_method RASPA-1.0
_audit_creation_date 2022-1-29
_audit_author_name 'Felipe Lopes de Oliveira <felipe.lopes.oliveira@ibm.com>'

_cell_length_a    10.9672
_cell_length_b    15.0587
_cell_length_c    15.0587
_cell_angle_alpha 114.305
_cell_angle_beta  104.05
_cell_angle_gamma 104.05
_cell_volume      2026.84

_symmetry_cell_setting          triclinic
_symmetry_space_group_name_Hall 'P 1'
_symmetry_space_group_name_H-M  'P 1'
_symmetry_Int_Tables_number     1

_symmetry_equiv_pos_as_xyz 'x,y,z'

loop_
_atom_site_label
_atom_site_type_symbol
_atom_site_fract_x
_atom_site_fract_y
_atom_site_fract_z
_atom_site_charge
Fe       Fe     0.500000000000     0.500000000000     0.500000000000     0.602072   
Fe       Fe     0.000000000000     0.000000000000     0.500000000000     0.602072   
Fe       Fe     0.000000000000     0.500000000000     0.000000000000     0.602072   
H        H      0.230800000000     0.464000000000     0.341600000000     0.17122    
H        H      0.476400000000     0.706000000000     0.689100000000     0.17122    
H        H      0.347800000000     0.729100000000     0.709200000000     0.17122    
H        H      0.443500000000     0.799600000000     0.678000000000     0.17122    
H        H      0.031700000000     0.468100000000     0.237300000000     0.17122    
H        H      0.043200000000     0.586700000000     0.272900000000     0.17122    
H        H      0.950900000000     0.517100000000     0.306800000000     0.17122    
H        H      0.028300000000     0.763300000000     0.715800000000     0.17122    
H        H      0.165400000000     0.742900000000     0.718800000000     0.17122    
H        H      0.020800000000     0.651100000000     0.633000000000     0.17122    
H        H      0.129000000000     0.853400000000     0.369200000000     0.17122    
H        H      0.118800000000     0.734000000000     0.324800000000     0.17122    
H        H      0.259100000000     0.830100000000     0.412300000000     0.17122    
H        H      0.991300000000     0.865800000000     0.631300000000     0.17122    
H        H      0.769200000000     0.536000000000     0.658400000000     0.17122    
H        H      0.523600000000     0.294000000000     0.310900000000     0.17122    
H        H      0.652200000000     0.270900000000     0.290800000000     0.17122    
H        H      0.556500000000     0.200400000000     0.322000000000     0.17122    
H        H      0.968300000000     0.531900000000     0.762700000000     0.17122    
H        H      0.956800000000     0.413300000000     0.727100000000     0.17122    
H        H      0.049100000000     0.482900000000     0.693200000000     0.17122    
H        H      0.971700000000     0.236700000000     0.284200000000     0.17122    
H        H      0.834600000000     0.257100000000     0.281200000000     0.17122    
H        H      0.979200000000     0.348900000000     0.367000000000     0.17122    
H        H      0.871000000000     0.146600000000     0.630800000000     0.17122    
H        H      0.881200000000     0.266000000000     0.675200000000     0.17122    
H        H      0.740900000000     0.169900000000     0.587700000000     0.17122    
H        H      0.008700000000     0.134200000000     0.368700000000     0.17122    
H        H      0.766800000000     0.877600000000     0.536000000000     0.17122    
H        H      0.770400000000     0.983100000000     0.294000000000     0.17122    
H        H      0.618700000000     0.980100000000     0.270900000000     0.17122    
H        H      0.643900000000     0.878400000000     0.200400000000     0.17122    
H        H      0.563600000000     0.769200000000     0.531900000000     0.17122    
H        H      0.456500000000     0.686200000000     0.413300000000     0.17122    
H        H      0.433800000000     0.789700000000     0.482900000000     0.17122    
H        H      0.265000000000     0.952500000000     0.236700000000     0.17122    
H        H      0.422500000000     0.975900000000     0.257100000000     0.17122    
H        H      0.369700000000     0.981900000000     0.348900000000     0.17122    
H        H      0.275600000000     0.515800000000     0.146600000000     0.17122    
H        H      0.384800000000     0.590800000000     0.266000000000     0.17122    
H        H      0.429000000000     0.582200000000     0.169900000000     0.17122    
H        H      0.125500000000     0.765500000000     0.134200000000     0.17122    
H        H      0.233200000000     0.122400000000     0.464000000000     0.17122    
H        H      0.229600000000     0.016900000000     0.706000000000     0.17122    
H        H      0.381300000000     0.019900000000     0.729100000000     0.17122    
H        H      0.356100000000     0.121600000000     0.799600000000     0.17122    
H        H      0.436400000000     0.230800000000     0.468100000000     0.17122    
H        H      0.543500000000     0.313800000000     0.586700000000     0.17122    
H        H      0.566200000000     0.210300000000     0.517100000000     0.17122    
H        H      0.735000000000     0.047500000000     0.763300000000     0.17122    
H        H      0.577500000000     0.024100000000     0.742900000000     0.17122    
H        H      0.630300000000     0.018100000000     0.651100000000     0.17122    
H        H      0.724400000000     0.484200000000     0.853400000000     0.17122    
H        H      0.615200000000     0.409200000000     0.734000000000     0.17122    
H        H      0.571000000000     0.417800000000     0.830100000000     0.17122    
H        H      0.874500000000     0.234500000000     0.865800000000     0.17122    
H        H      0.889200000000     0.658400000000     0.122400000000     0.17122    
H        H      0.787300000000     0.310900000000     0.016900000000     0.17122    
H        H      0.638600000000     0.290800000000     0.019900000000     0.17122    
H        H      0.765500000000     0.322000000000     0.121600000000     0.17122    
H        H      0.794400000000     0.762700000000     0.230800000000     0.17122    
H        H      0.770300000000     0.727100000000     0.313800000000     0.17122    
H        H      0.644100000000     0.693200000000     0.210300000000     0.17122    
H        H      0.312500000000     0.284200000000     0.047500000000     0.17122    
H        H      0.446600000000     0.281200000000     0.024100000000     0.17122    
H        H      0.387800000000     0.367000000000     0.018100000000     0.17122    
H        H      0.759800000000     0.630800000000     0.484200000000     0.17122    
H        H      0.794000000000     0.675200000000     0.409200000000     0.17122    
H        H      0.846800000000     0.587700000000     0.417800000000     0.17122    
H        H      0.360000000000     0.368700000000     0.234500000000     0.17122    
H        H      0.110800000000     0.341600000000     0.877600000000     0.17122    
H        H      0.212700000000     0.689100000000     0.983100000000     0.17122    
H        H      0.361400000000     0.709200000000     0.980100000000     0.17122    
H        H      0.234500000000     0.678000000000     0.878400000000     0.17122    
H        H      0.205600000000     0.237300000000     0.769200000000     0.17122    
H        H      0.229700000000     0.272900000000     0.686200000000     0.17122    
H        H      0.355900000000     0.306800000000     0.789700000000     0.17122    
H        H      0.687500000000     0.715800000000     0.952500000000     0.17122    
H        H      0.553400000000     0.718800000000     0.975900000000     0.17122    
H        H      0.612200000000     0.633000000000     0.981900000000     0.17122    
H        H      0.240200000000     0.369200000000     0.515800000000     0.17122    
H        H      0.206000000000     0.324800000000     0.590800000000     0.17122    
H        H      0.153200000000     0.412300000000     0.582200000000     0.17122    
H        H      0.640000000000     0.631300000000     0.765500000000     0.17122    
C        C      0.274580000000     0.261330000000     0.348310000000    -0.149048   
C        C      0.316010000000     0.653540000000     0.552590000000    -0.149048   
C        C      0.200260000000     0.659410000000     0.491370000000    -0.149048   
C        C      0.153620000000     0.571960000000     0.391500000000    -0.149048   
C        C      0.403440000000     0.728470000000     0.667050000000    -0.149048   
C        C      0.034770000000     0.532630000000     0.293880000000    -0.149048   
C        C      0.084650000000     0.766540000000     0.597210000000    -0.149048   
C        C      0.140140000000     0.739970000000     0.521450000000    -0.149048   
C        C      0.116410000000     0.800280000000     0.472450000000    -0.149048   
C        C      0.073820000000     0.727600000000     0.672660000000    -0.149048   
C        C      0.159500000000     0.804850000000     0.387450000000    -0.149048   
C        C      0.725420000000     0.738670000000     0.651690000000    -0.149048   
C        C      0.683990000000     0.346460000000     0.447410000000    -0.149048   
C        C      0.799740000000     0.340590000000     0.508630000000    -0.149048   
C        C      0.846380000000     0.428040000000     0.608500000000    -0.149048   
C        C      0.596560000000     0.271530000000     0.332950000000    -0.149048   
C        C      0.965230000000     0.467370000000     0.706120000000    -0.149048   
C        C      0.915350000000     0.233460000000     0.402790000000    -0.149048   
C        C      0.859860000000     0.260030000000     0.478550000000    -0.149048   
C        C      0.883590000000     0.199720000000     0.527550000000    -0.149048   
C        C      0.926180000000     0.272400000000     0.327340000000    -0.149048   
C        C      0.840500000000     0.195150000000     0.612550000000    -0.149048   
C        C      0.013250000000     0.086980000000     0.738670000000    -0.149048   
C        C      0.662470000000     0.899050000000     0.346460000000    -0.149048   
C        C      0.540850000000     0.831960000000     0.340590000000    -0.149048   
C        C      0.581660000000     0.819540000000     0.428040000000    -0.149048   
C        C      0.674970000000     0.938580000000     0.271530000000    -0.149048   
C        C      0.502140000000     0.761250000000     0.467370000000    -0.149048   
C        C      0.318110000000     0.830670000000     0.233460000000    -0.149048   
C        C      0.400170000000     0.781480000000     0.260030000000    -0.149048   
C        C      0.316130000000     0.672170000000     0.199720000000    -0.149048   
C        C      0.346220000000     0.945060000000     0.272400000000    -0.149048   
C        C      0.354650000000     0.582600000000     0.195150000000    -0.149048   
C        C      0.986750000000     0.913020000000     0.261330000000    -0.149048   
C        C      0.337530000000     0.100950000000     0.653540000000    -0.149048   
C        C      0.459150000000     0.168040000000     0.659410000000    -0.149048   
C        C      0.418340000000     0.180460000000     0.571960000000    -0.149048   
C        C      0.325030000000     0.061420000000     0.728470000000    -0.149048   
C        C      0.497860000000     0.238750000000     0.532630000000    -0.149048   
C        C      0.681890000000     0.169330000000     0.766540000000    -0.149048   
C        C      0.599830000000     0.218520000000     0.739970000000    -0.149048   
C        C      0.683870000000     0.327830000000     0.800280000000    -0.149048   
C        C      0.653780000000     0.054940000000     0.727600000000    -0.149048   
C        C      0.645350000000     0.417400000000     0.804850000000    -0.149048   
C        C      0.926270000000     0.651690000000     0.913020000000    -0.149048   
C        C      0.763420000000     0.447410000000     0.100950000000    -0.149048   
C        C      0.708890000000     0.508630000000     0.168040000000    -0.149048   
C        C      0.762120000000     0.608500000000     0.180460000000    -0.149048   
C        C      0.736390000000     0.332950000000     0.061420000000    -0.149048   
C        C      0.740890000000     0.706120000000     0.238750000000    -0.149048   
C        C      0.487440000000     0.402790000000     0.169330000000    -0.149048   
C        C      0.618690000000     0.478550000000     0.218520000000    -0.149048   
C        C      0.643960000000     0.527550000000     0.327830000000    -0.149048   
C        C      0.401160000000     0.327340000000     0.054940000000    -0.149048   
C        C      0.772050000000     0.612550000000     0.417400000000    -0.149048   
C        C      0.073730000000     0.348310000000     0.086980000000    -0.149048   
C        C      0.236580000000     0.552590000000     0.899050000000    -0.149048   
C        C      0.291110000000     0.491370000000     0.831960000000    -0.149048   
C        C      0.237880000000     0.391500000000     0.819540000000    -0.149048   
C        C      0.263610000000     0.667050000000     0.938580000000    -0.149048   
C        C      0.259110000000     0.293880000000     0.761250000000    -0.149048   
C        C      0.512560000000     0.597210000000     0.830670000000    -0.149048   
C        C      0.381310000000     0.521450000000     0.781480000000    -0.149048   
C        C      0.356040000000     0.472450000000     0.672170000000    -0.149048   
C        C      0.598840000000     0.672660000000     0.945060000000    -0.149048   
C        C      0.227950000000     0.387450000000     0.582600000000    -0.149048   
S        S      0.181500000000     0.134640000000     0.280570000000    -0.105992   
S        S      0.818500000000     0.865360000000     0.719430000000    -0.105992   
S        S      0.046860000000     0.145930000000     0.865360000000    -0.105992   
S        S      0.953140000000     0.854070000000     0.134640000000    -0.105992   
S        S      0.900930000000     0.719430000000     0.854070000000    -0.105992   
S        S      0.099070000000     0.280570000000     0.145930000000    -0.105992   
N        N      0.343240000000     0.351470000000     0.396290000000    -0.19052    
N        N      0.339350000000     0.569280000000     0.493390000000    -0.19052    
N        N      0.239060000000     0.521640000000     0.395980000000    -0.19052    
N        N      0.049130000000     0.859320000000     0.514180000000    -0.19052    
N        N      0.032220000000     0.837150000000     0.590560000000    -0.19052    
N        N      0.656760000000     0.648530000000     0.603710000000    -0.19052    
N        N      0.660650000000     0.430720000000     0.506610000000    -0.19052    
N        N      0.760940000000     0.478360000000     0.604020000000    -0.19052    
N        N      0.950870000000     0.140680000000     0.485820000000    -0.19052    
N        N      0.967780000000     0.162850000000     0.409440000000    -0.19052    
N        N      0.991770000000     0.044820000000     0.648530000000    -0.19052    
N        N      0.770070000000     0.924110000000     0.430720000000    -0.19052    
N        N      0.717420000000     0.874340000000     0.478360000000    -0.19052    
N        N      0.189810000000     0.654860000000     0.140680000000    -0.19052    
N        N      0.195070000000     0.753410000000     0.162850000000    -0.19052    
N        N      0.008230000000     0.955180000000     0.351470000000    -0.19052    
N        N      0.229930000000     0.075890000000     0.569280000000    -0.19052    
N        N      0.282580000000     0.125660000000     0.521640000000    -0.19052    
N        N      0.810190000000     0.345140000000     0.859320000000    -0.19052    
N        N      0.804930000000     0.246590000000     0.837150000000    -0.19052    
N        N      0.946950000000     0.603710000000     0.955180000000    -0.19052    
N        N      0.845960000000     0.506610000000     0.075890000000    -0.19052    
N        N      0.843080000000     0.604020000000     0.125660000000    -0.19052    
N        N      0.534950000000     0.485820000000     0.345140000000    -0.19052    
N        N      0.441660000000     0.409440000000     0.246590000000    -0.19052    
N        N      0.053050000000     0.396290000000     0.044820000000    -0.19052    
N        N      0.154040000000     0.493390000000     0.924110000000    -0.19052    
N        N      0.156920000000     0.395980000000     0.874340000000    -0.19052    
N        N      0.465050000000     0.514180000000     0.654860000000    -0.19052    
N        N      0.558340000000     0.590560000000     0.753410000000    -0.19052    


