data_HAJLIO_original

_audit_creation_method RASPA-1.0
_audit_creation_date 2022-1-31
_audit_author_name 'Felipe Lopes de Oliveira <felipe.lopes.oliveira@ibm.com>'

_cell_length_a    10.9463
_cell_length_b    15.0463
_cell_length_c    15.0463
_cell_angle_alpha 114.317
_cell_angle_beta  104.034
_cell_angle_gamma 104.034
_cell_volume      2019.93

_symmetry_cell_setting          triclinic
_symmetry_space_group_name_Hall 'P 1'
_symmetry_space_group_name_H-M  'P 1'
_symmetry_Int_Tables_number     1

_symmetry_equiv_pos_as_xyz 'x,y,z'

loop_
_atom_site_label
_atom_site_type_symbol
_atom_site_fract_x
_atom_site_fract_y
_atom_site_fract_z
_atom_site_charge
Fe       Fe     0.500000000000     0.500000000000     0.500000000000     0.603362   
Fe       Fe     0.000000000000     0.000000000000     0.500000000000     0.603362   
Fe       Fe     0.000000000000     0.500000000000     0.000000000000     0.603362   
H        H      0.229500000000     0.463600000000     0.341100000000     0.172362   
H        H      0.475800000000     0.705300000000     0.688900000000     0.172362   
H        H      0.346900000000     0.728400000000     0.709000000000     0.172362   
H        H      0.443100000000     0.799300000000     0.678300000000     0.172362   
H        H      0.031000000000     0.467600000000     0.237500000000     0.172362   
H        H      0.041700000000     0.585900000000     0.272500000000     0.172362   
H        H      0.949800000000     0.516600000000     0.307000000000     0.172362   
H        H      0.026800000000     0.763000000000     0.715200000000     0.172362   
H        H      0.164000000000     0.742300000000     0.718200000000     0.172362   
H        H      0.019100000000     0.650600000000     0.632300000000     0.172362   
H        H      0.128600000000     0.853400000000     0.369200000000     0.172362   
H        H      0.118700000000     0.734200000000     0.324900000000     0.172362   
H        H      0.259100000000     0.830300000000     0.412400000000     0.172362   
H        H      0.991600000000     0.866100000000     0.631600000000     0.172362   
H        H      0.770500000000     0.536400000000     0.658900000000     0.172362   
H        H      0.524200000000     0.294700000000     0.311100000000     0.172362   
H        H      0.653100000000     0.271600000000     0.291000000000     0.172362   
H        H      0.556900000000     0.200700000000     0.321700000000     0.172362   
H        H      0.969000000000     0.532400000000     0.762500000000     0.172362   
H        H      0.958300000000     0.414100000000     0.727500000000     0.172362   
H        H      0.050200000000     0.483400000000     0.693000000000     0.172362   
H        H      0.973200000000     0.237000000000     0.284800000000     0.172362   
H        H      0.836000000000     0.257700000000     0.281800000000     0.172362   
H        H      0.980900000000     0.349400000000     0.367700000000     0.172362   
H        H      0.871400000000     0.146600000000     0.630800000000     0.172362   
H        H      0.881300000000     0.265800000000     0.675100000000     0.172362   
H        H      0.740900000000     0.169700000000     0.587600000000     0.172362   
H        H      0.008400000000     0.133900000000     0.368400000000     0.172362   
H        H      0.765900000000     0.877500000000     0.536400000000     0.172362   
H        H      0.770500000000     0.983600000000     0.294700000000     0.172362   
H        H      0.618500000000     0.980600000000     0.271600000000     0.172362   
H        H      0.643800000000     0.879000000000     0.200700000000     0.172362   
H        H      0.563400000000     0.769900000000     0.532400000000     0.172362   
H        H      0.455800000000     0.686600000000     0.414100000000     0.172362   
H        H      0.433200000000     0.790400000000     0.483400000000     0.172362   
H        H      0.263800000000     0.952200000000     0.237000000000     0.172362   
H        H      0.421700000000     0.975900000000     0.257700000000     0.172362   
H        H      0.368500000000     0.981700000000     0.349400000000     0.172362   
H        H      0.275200000000     0.515800000000     0.146600000000     0.172362   
H        H      0.384500000000     0.590700000000     0.265800000000     0.172362   
H        H      0.428800000000     0.582100000000     0.169700000000     0.172362   
H        H      0.125500000000     0.765500000000     0.133900000000     0.172362   
H        H      0.234100000000     0.122500000000     0.463600000000     0.172362   
H        H      0.229500000000     0.016400000000     0.705300000000     0.172362   
H        H      0.381500000000     0.019400000000     0.728400000000     0.172362   
H        H      0.356200000000     0.121000000000     0.799300000000     0.172362   
H        H      0.436600000000     0.230100000000     0.467600000000     0.172362   
H        H      0.544200000000     0.313400000000     0.585900000000     0.172362   
H        H      0.566800000000     0.209600000000     0.516600000000     0.172362   
H        H      0.736200000000     0.047800000000     0.763000000000     0.172362   
H        H      0.578300000000     0.024100000000     0.742300000000     0.172362   
H        H      0.631500000000     0.018300000000     0.650600000000     0.172362   
H        H      0.724800000000     0.484200000000     0.853400000000     0.172362   
H        H      0.615500000000     0.409300000000     0.734200000000     0.172362   
H        H      0.571200000000     0.417900000000     0.830300000000     0.172362   
H        H      0.874500000000     0.234500000000     0.866100000000     0.172362   
H        H      0.888400000000     0.658900000000     0.122500000000     0.172362   
H        H      0.786900000000     0.311100000000     0.016400000000     0.172362   
H        H      0.637900000000     0.291000000000     0.019400000000     0.172362   
H        H      0.764800000000     0.321700000000     0.121000000000     0.172362   
H        H      0.793500000000     0.762500000000     0.230100000000     0.172362   
H        H      0.769200000000     0.727500000000     0.313400000000     0.172362   
H        H      0.642800000000     0.693000000000     0.209600000000     0.172362   
H        H      0.311600000000     0.284800000000     0.047800000000     0.172362   
H        H      0.445800000000     0.281800000000     0.024100000000     0.172362   
H        H      0.386800000000     0.367700000000     0.018300000000     0.172362   
H        H      0.759400000000     0.630800000000     0.484200000000     0.172362   
H        H      0.793800000000     0.675100000000     0.409300000000     0.172362   
H        H      0.846700000000     0.587600000000     0.417900000000     0.172362   
H        H      0.360000000000     0.368400000000     0.234500000000     0.172362   
H        H      0.111600000000     0.341100000000     0.877500000000     0.172362   
H        H      0.213100000000     0.688900000000     0.983600000000     0.172362   
H        H      0.362100000000     0.709000000000     0.980600000000     0.172362   
H        H      0.235200000000     0.678300000000     0.879000000000     0.172362   
H        H      0.206500000000     0.237500000000     0.769900000000     0.172362   
H        H      0.230800000000     0.272500000000     0.686600000000     0.172362   
H        H      0.357200000000     0.307000000000     0.790400000000     0.172362   
H        H      0.688400000000     0.715200000000     0.952200000000     0.172362   
H        H      0.554200000000     0.718200000000     0.975900000000     0.172362   
H        H      0.613200000000     0.632300000000     0.981700000000     0.172362   
H        H      0.240600000000     0.369200000000     0.515800000000     0.172362   
H        H      0.206200000000     0.324900000000     0.590700000000     0.172362   
H        H      0.153300000000     0.412400000000     0.582100000000     0.172362   
H        H      0.640000000000     0.631600000000     0.765500000000     0.172362   
C        C      0.275010000000     0.261690000000     0.348640000000    -0.150119   
C        C      0.315390000000     0.653210000000     0.552260000000    -0.150119   
C        C      0.199750000000     0.659250000000     0.491500000000    -0.150119   
C        C      0.152800000000     0.571980000000     0.391720000000    -0.150119   
C        C      0.402740000000     0.727970000000     0.666950000000    -0.150119   
C        C      0.033710000000     0.532140000000     0.293890000000    -0.150119   
C        C      0.083370000000     0.766010000000     0.596900000000    -0.150119   
C        C      0.139920000000     0.739820000000     0.521540000000    -0.150119   
C        C      0.116150000000     0.800260000000     0.472590000000    -0.150119   
C        C      0.072360000000     0.727150000000     0.672030000000    -0.150119   
C        C      0.159340000000     0.804950000000     0.387470000000    -0.150119   
C        C      0.724990000000     0.738310000000     0.651360000000    -0.150119   
C        C      0.684610000000     0.346790000000     0.447740000000    -0.150119   
C        C      0.800250000000     0.340750000000     0.508500000000    -0.150119   
C        C      0.847200000000     0.428020000000     0.608280000000    -0.150119   
C        C      0.597260000000     0.272030000000     0.333050000000    -0.150119   
C        C      0.966290000000     0.467860000000     0.706110000000    -0.150119   
C        C      0.916630000000     0.233990000000     0.403100000000    -0.150119   
C        C      0.860080000000     0.260180000000     0.478460000000    -0.150119   
C        C      0.883850000000     0.199740000000     0.527410000000    -0.150119   
C        C      0.927640000000     0.272850000000     0.327970000000    -0.150119   
C        C      0.840660000000     0.195050000000     0.612530000000    -0.150119   
C        C      0.013320000000     0.086950000000     0.738310000000    -0.150119   
C        C      0.662180000000     0.899050000000     0.346790000000    -0.150119   
C        C      0.540500000000     0.832250000000     0.340750000000    -0.150119   
C        C      0.580820000000     0.819740000000     0.428020000000    -0.150119   
C        C      0.674770000000     0.938980000000     0.272030000000    -0.150119   
C        C      0.501570000000     0.761750000000     0.467860000000    -0.150119   
C        C      0.317360000000     0.830890000000     0.233990000000    -0.150119   
C        C      0.400100000000     0.781720000000     0.260180000000    -0.150119   
C        C      0.315890000000     0.672330000000     0.199740000000    -0.150119   
C        C      0.345210000000     0.944880000000     0.272850000000    -0.150119   
C        C      0.354390000000     0.582520000000     0.195050000000    -0.150119   
C        C      0.986680000000     0.913050000000     0.261690000000    -0.150119   
C        C      0.337820000000     0.100950000000     0.653210000000    -0.150119   
C        C      0.459500000000     0.167750000000     0.659250000000    -0.150119   
C        C      0.419180000000     0.180260000000     0.571980000000    -0.150119   
C        C      0.325230000000     0.061020000000     0.727970000000    -0.150119   
C        C      0.498430000000     0.238250000000     0.532140000000    -0.150119   
C        C      0.682640000000     0.169110000000     0.766010000000    -0.150119   
C        C      0.599900000000     0.218280000000     0.739820000000    -0.150119   
C        C      0.684110000000     0.327670000000     0.800260000000    -0.150119   
C        C      0.654790000000     0.055120000000     0.727150000000    -0.150119   
C        C      0.645610000000     0.417480000000     0.804950000000    -0.150119   
C        C      0.926370000000     0.651360000000     0.913050000000    -0.150119   
C        C      0.763130000000     0.447740000000     0.100950000000    -0.150119   
C        C      0.708250000000     0.508500000000     0.167750000000    -0.150119   
C        C      0.761080000000     0.608280000000     0.180260000000    -0.150119   
C        C      0.735790000000     0.333050000000     0.061020000000    -0.150119   
C        C      0.739820000000     0.706110000000     0.238250000000    -0.150119   
C        C      0.486470000000     0.403100000000     0.169110000000    -0.150119   
C        C      0.618380000000     0.478460000000     0.218280000000    -0.150119   
C        C      0.643560000000     0.527410000000     0.327670000000    -0.150119   
C        C      0.400330000000     0.327970000000     0.055120000000    -0.150119   
C        C      0.771870000000     0.612530000000     0.417480000000    -0.150119   
C        C      0.073630000000     0.348640000000     0.086950000000    -0.150119   
C        C      0.236870000000     0.552260000000     0.899050000000    -0.150119   
C        C      0.291750000000     0.491500000000     0.832250000000    -0.150119   
C        C      0.238920000000     0.391720000000     0.819740000000    -0.150119   
C        C      0.264210000000     0.666950000000     0.938980000000    -0.150119   
C        C      0.260180000000     0.293890000000     0.761750000000    -0.150119   
C        C      0.513530000000     0.596900000000     0.830890000000    -0.150119   
C        C      0.381620000000     0.521540000000     0.781720000000    -0.150119   
C        C      0.356440000000     0.472590000000     0.672330000000    -0.150119   
C        C      0.599670000000     0.672030000000     0.944880000000    -0.150119   
C        C      0.228130000000     0.387470000000     0.582520000000    -0.150119   
S        S      0.182000000000     0.134950000000     0.280380000000    -0.106793   
S        S      0.818000000000     0.865050000000     0.719620000000    -0.106793   
S        S      0.047050000000     0.145430000000     0.865050000000    -0.106793   
S        S      0.952950000000     0.854570000000     0.134950000000    -0.106793   
S        S      0.901620000000     0.719620000000     0.854570000000    -0.106793   
S        S      0.098380000000     0.280380000000     0.145430000000    -0.106793   
N        N      0.343460000000     0.351870000000     0.396520000000    -0.191331   
N        N      0.338860000000     0.569000000000     0.493280000000    -0.191331   
N        N      0.238050000000     0.521320000000     0.395670000000    -0.191331   
N        N      0.048830000000     0.859240000000     0.514290000000    -0.191331   
N        N      0.032000000000     0.837000000000     0.590500000000    -0.191331   
N        N      0.656540000000     0.648130000000     0.603480000000    -0.191331   
N        N      0.661140000000     0.431000000000     0.506720000000    -0.191331   
N        N      0.761950000000     0.478680000000     0.604330000000    -0.191331   
N        N      0.951170000000     0.140760000000     0.485710000000    -0.191331   
N        N      0.968000000000     0.163000000000     0.409500000000    -0.191331   
N        N      0.991590000000     0.044650000000     0.648130000000    -0.191331   
N        N      0.769860000000     0.924280000000     0.431000000000    -0.191331   
N        N      0.716730000000     0.874350000000     0.478680000000    -0.191331   
N        N      0.189590000000     0.655050000000     0.140760000000    -0.191331   
N        N      0.195000000000     0.753500000000     0.163000000000    -0.191331   
N        N      0.008410000000     0.955350000000     0.351870000000    -0.191331   
N        N      0.230140000000     0.075720000000     0.569000000000    -0.191331   
N        N      0.283270000000     0.125650000000     0.521320000000    -0.191331   
N        N      0.810410000000     0.344950000000     0.859240000000    -0.191331   
N        N      0.805000000000     0.246500000000     0.837000000000    -0.191331   
N        N      0.946940000000     0.603480000000     0.955350000000    -0.191331   
N        N      0.845580000000     0.506720000000     0.075720000000    -0.191331   
N        N      0.842380000000     0.604330000000     0.125650000000    -0.191331   
N        N      0.534540000000     0.485710000000     0.344950000000    -0.191331   
N        N      0.441500000000     0.409500000000     0.246500000000    -0.191331   
N        N      0.053060000000     0.396520000000     0.044650000000    -0.191331   
N        N      0.154420000000     0.493280000000     0.924280000000    -0.191331   
N        N      0.157620000000     0.395670000000     0.874350000000    -0.191331   
N        N      0.465460000000     0.514290000000     0.655050000000    -0.191331   
N        N      0.558500000000     0.590500000000     0.753500000000    -0.191331   


