data_HAJMAH_original

_audit_creation_method RASPA-1.0
_audit_creation_date 2022-1-31
_audit_author_name 'Felipe Lopes de Oliveira <felipe.lopes.oliveira@ibm.com>'

_cell_length_a    11.0385
_cell_length_b    15.1757
_cell_length_c    15.1758
_cell_angle_alpha 114.319
_cell_angle_beta  104.032
_cell_angle_gamma 104.031
_cell_volume      2072.2

_symmetry_cell_setting          triclinic
_symmetry_space_group_name_Hall 'P 1'
_symmetry_space_group_name_H-M  'P 1'
_symmetry_Int_Tables_number     1

_symmetry_equiv_pos_as_xyz 'x,y,z'

loop_
_atom_site_label
_atom_site_type_symbol
_atom_site_fract_x
_atom_site_fract_y
_atom_site_fract_z
_atom_site_charge
Fe       Fe     0.000000000000     0.500000000000     0.000000000000     0.586512   
Fe       Fe     0.000000000000     0.000000000000     0.500000000000     0.586512   
Fe       Fe     0.500000000000     0.500000000000     0.500000000000     0.586512   
H        H      0.764900000000     0.531700000000     0.876200000000     0.224731   
H        H      0.768300000000     0.291700000000     0.978500000000     0.224731   
H        H      0.620400000000     0.268300000000     0.975200000000     0.224731   
H        H      0.645500000000     0.200900000000     0.876100000000     0.224731   
H        H      0.563500000000     0.529200000000     0.771600000000     0.224731   
H        H      0.458000000000     0.414400000000     0.690500000000     0.224731   
H        H      0.437500000000     0.481700000000     0.792100000000     0.224731   
H        H      0.268200000000     0.241300000000     0.952100000000     0.224731   
H        H      0.421900000000     0.262100000000     0.975700000000     0.224731   
H        H      0.369200000000     0.350200000000     0.979700000000     0.224731   
H        H      0.280200000000     0.144800000000     0.520000000000     0.224731   
H        H      0.388200000000     0.260100000000     0.591300000000     0.224731   
H        H      0.428700000000     0.166100000000     0.584800000000     0.224731   
H        H      0.131000000000     0.139400000000     0.768100000000     0.224731   
H        H      0.235100000000     0.468300000000     0.123800000000     0.224731   
H        H      0.231700000000     0.708300000000     0.021500000000     0.224731   
H        H      0.379600000000     0.731700000000     0.024800000000     0.224731   
H        H      0.354500000000     0.799100000000     0.123900000000     0.224731   
H        H      0.436500000000     0.470800000000     0.228400000000     0.224731   
H        H      0.542000000000     0.585600000000     0.309500000000     0.224731   
H        H      0.562500000000     0.518300000000     0.207900000000     0.224731   
H        H      0.731800000000     0.758700000000     0.047900000000     0.224731   
H        H      0.578100000000     0.737900000000     0.024300000000     0.224731   
H        H      0.630800000000     0.649800000000     0.020300000000     0.224731   
H        H      0.719800000000     0.855200000000     0.480000000000     0.224731   
H        H      0.611800000000     0.739900000000     0.408700000000     0.224731   
H        H      0.571300000000     0.833900000000     0.415200000000     0.224731   
H        H      0.869000000000     0.860600000000     0.231900000000     0.224731   
H        H      0.888700000000     0.123800000000     0.655500000000     0.224731   
H        H      0.789800000000     0.021500000000     0.313200000000     0.224731   
H        H      0.645200000000     0.024800000000     0.293100000000     0.224731   
H        H      0.769400000000     0.123900000000     0.324800000000     0.224731   
H        H      0.791900000000     0.228400000000     0.757600000000     0.224731   
H        H      0.767500000000     0.309500000000     0.723900000000     0.224731   
H        H      0.645400000000     0.207900000000     0.689600000000     0.224731   
H        H      0.316100000000     0.047900000000     0.289200000000     0.224731   
H        H      0.446200000000     0.024300000000     0.286400000000     0.224731   
H        H      0.389500000000     0.020300000000     0.370500000000     0.224731   
H        H      0.760200000000     0.480000000000     0.624800000000     0.224731   
H        H      0.796900000000     0.408700000000     0.668800000000     0.224731   
H        H      0.843900000000     0.415200000000     0.581300000000     0.224731   
H        H      0.362900000000     0.231900000000     0.371300000000     0.224731   
H        H      0.111300000000     0.876200000000     0.344500000000     0.224731   
H        H      0.210200000000     0.978500000000     0.686800000000     0.224731   
H        H      0.354800000000     0.975200000000     0.706900000000     0.224731   
H        H      0.230600000000     0.876100000000     0.675200000000     0.224731   
H        H      0.208100000000     0.771600000000     0.242400000000     0.224731   
H        H      0.232500000000     0.690500000000     0.276100000000     0.224731   
H        H      0.354600000000     0.792100000000     0.310400000000     0.224731   
H        H      0.683900000000     0.952100000000     0.710800000000     0.224731   
H        H      0.553800000000     0.975700000000     0.713600000000     0.224731   
H        H      0.610500000000     0.979700000000     0.629500000000     0.224731   
H        H      0.239800000000     0.520000000000     0.375200000000     0.224731   
H        H      0.203100000000     0.591300000000     0.331200000000     0.224731   
H        H      0.156100000000     0.584800000000     0.418700000000     0.224731   
H        H      0.637100000000     0.768100000000     0.628700000000     0.224731   
H        H      0.233200000000     0.344500000000     0.468300000000     0.224731   
H        H      0.476600000000     0.686800000000     0.708300000000     0.224731   
H        H      0.352100000000     0.706900000000     0.731700000000     0.224731   
H        H      0.444600000000     0.675200000000     0.799100000000     0.224731   
H        H      0.034300000000     0.242400000000     0.470800000000     0.224731   
H        H      0.043600000000     0.276100000000     0.585600000000     0.224731   
H        H      0.955800000000     0.310400000000     0.518300000000     0.224731   
H        H      0.026900000000     0.710800000000     0.758700000000     0.224731   
H        H      0.159800000000     0.713600000000     0.737900000000     0.224731   
H        H      0.019000000000     0.629500000000     0.649800000000     0.224731   
H        H      0.135400000000     0.375200000000     0.855200000000     0.224731   
H        H      0.128100000000     0.331200000000     0.739900000000     0.224731   
H        H      0.262600000000     0.418700000000     0.833900000000     0.224731   
H        H      0.991600000000     0.628700000000     0.860600000000     0.224731   
H        H      0.766800000000     0.655500000000     0.531700000000     0.224731   
H        H      0.523400000000     0.313200000000     0.291700000000     0.224731   
H        H      0.647900000000     0.293100000000     0.268300000000     0.224731   
H        H      0.555400000000     0.324800000000     0.200900000000     0.224731   
H        H      0.965700000000     0.757600000000     0.529200000000     0.224731   
H        H      0.956400000000     0.723900000000     0.414400000000     0.224731   
H        H      0.044200000000     0.689600000000     0.481700000000     0.224731   
H        H      0.973100000000     0.289200000000     0.241300000000     0.224731   
H        H      0.840200000000     0.286400000000     0.262100000000     0.224731   
H        H      0.981000000000     0.370500000000     0.350200000000     0.224731   
H        H      0.864600000000     0.624800000000     0.144800000000     0.224731   
H        H      0.871900000000     0.668800000000     0.260100000000     0.224731   
H        H      0.737400000000     0.581300000000     0.166100000000     0.224731   
H        H      0.008400000000     0.371300000000     0.139400000000     0.224731   
C        C      0.011700000000     0.735710000000     0.084990000000    -0.208698   
C        C      0.662990000000     0.344510000000     0.897460000000    -0.208698   
C        C      0.542220000000     0.339450000000     0.832110000000    -0.208698   
C        C      0.581800000000     0.426000000000     0.819900000000    -0.208698   
C        C      0.675400000000     0.269700000000     0.935100000000    -0.208698   
C        C      0.503300000000     0.466400000000     0.763600000000    -0.208698   
C        C      0.319800000000     0.236100000000     0.831300000000    -0.208698   
C        C      0.402430000000     0.260620000000     0.782570000000    -0.208698   
C        C      0.319060000000     0.199420000000     0.674060000000    -0.208698   
C        C      0.347200000000     0.275900000000     0.944800000000    -0.208698   
C        C      0.357500000000     0.192000000000     0.584700000000    -0.208698   
C        C      0.988300000000     0.264290000000     0.915010000000    -0.208698   
C        C      0.337010000000     0.655490000000     0.102540000000    -0.208698   
C        C      0.457780000000     0.660550000000     0.167890000000    -0.208698   
C        C      0.418200000000     0.574000000000     0.180100000000    -0.208698   
C        C      0.324600000000     0.730300000000     0.064900000000    -0.208698   
C        C      0.496700000000     0.533600000000     0.236400000000    -0.208698   
C        C      0.680200000000     0.763900000000     0.168700000000    -0.208698   
C        C      0.597570000000     0.739380000000     0.217430000000    -0.208698   
C        C      0.680940000000     0.800580000000     0.325940000000    -0.208698   
C        C      0.652800000000     0.724100000000     0.055200000000    -0.208698   
C        C      0.642500000000     0.808000000000     0.415300000000    -0.208698   
C        C      0.926710000000     0.915010000000     0.650720000000    -0.208698   
C        C      0.765530000000     0.102540000000     0.447050000000    -0.208698   
C        C      0.710110000000     0.167890000000     0.507340000000    -0.208698   
C        C      0.761900000000     0.180100000000     0.606100000000    -0.208698   
C        C      0.740300000000     0.064900000000     0.334600000000    -0.208698   
C        C      0.739700000000     0.236400000000     0.702800000000    -0.208698   
C        C      0.488500000000     0.168700000000     0.404800000000    -0.208698   
C        C      0.619860000000     0.217430000000     0.478050000000    -0.208698   
C        C      0.645000000000     0.325940000000     0.525360000000    -0.208698   
C        C      0.402400000000     0.055200000000     0.331100000000    -0.208698   
C        C      0.772800000000     0.415300000000     0.607300000000    -0.208698   
C        C      0.073290000000     0.084990000000     0.349280000000    -0.208698   
C        C      0.234470000000     0.897460000000     0.552950000000    -0.208698   
C        C      0.289890000000     0.832110000000     0.492660000000    -0.208698   
C        C      0.238100000000     0.819900000000     0.393900000000    -0.208698   
C        C      0.259700000000     0.935100000000     0.665400000000    -0.208698   
C        C      0.260300000000     0.763600000000     0.297200000000    -0.208698   
C        C      0.511500000000     0.831300000000     0.595200000000    -0.208698   
C        C      0.380140000000     0.782570000000     0.521950000000    -0.208698   
C        C      0.355000000000     0.674060000000     0.474640000000    -0.208698   
C        C      0.597600000000     0.944800000000     0.668900000000    -0.208698   
C        C      0.227200000000     0.584700000000     0.392700000000    -0.208698   
C        C      0.275990000000     0.349280000000     0.264290000000    -0.208698   
C        C      0.318480000000     0.552950000000     0.655490000000    -0.208698   
C        C      0.202770000000     0.492660000000     0.660550000000    -0.208698   
C        C      0.155800000000     0.393900000000     0.574000000000    -0.208698   
C        C      0.405700000000     0.665400000000     0.730300000000    -0.208698   
C        C      0.036900000000     0.297200000000     0.533600000000    -0.208698   
C        C      0.083700000000     0.595200000000     0.763900000000    -0.208698   
C        C      0.141810000000     0.521950000000     0.739380000000    -0.208698   
C        C      0.119640000000     0.474640000000     0.800580000000    -0.208698   
C        C      0.071300000000     0.668900000000     0.724100000000    -0.208698   
C        C      0.165500000000     0.392700000000     0.808000000000    -0.208698   
C        C      0.724010000000     0.650720000000     0.735710000000    -0.208698   
C        C      0.681520000000     0.447050000000     0.344510000000    -0.208698   
C        C      0.797230000000     0.507340000000     0.339450000000    -0.208698   
C        C      0.844200000000     0.606100000000     0.426000000000    -0.208698   
C        C      0.594300000000     0.334600000000     0.269700000000    -0.208698   
C        C      0.963100000000     0.702800000000     0.466400000000    -0.208698   
C        C      0.916300000000     0.404800000000     0.236100000000    -0.208698   
C        C      0.858190000000     0.478050000000     0.260620000000    -0.208698   
C        C      0.880360000000     0.525360000000     0.199420000000    -0.208698   
C        C      0.928700000000     0.331100000000     0.275900000000    -0.208698   
C        C      0.834500000000     0.607300000000     0.192000000000    -0.208698   
S        S      0.045100000000     0.860660000000     0.143430000000    -0.12231    
S        S      0.954900000000     0.139340000000     0.856570000000    -0.12231    
S        S      0.901670000000     0.856570000000     0.717230000000    -0.12231    
S        S      0.098330000000     0.143430000000     0.282770000000    -0.12231    
S        S      0.184440000000     0.282770000000     0.139340000000    -0.12231    
S        S      0.815560000000     0.717230000000     0.860660000000    -0.12231    
N        N      0.990300000000     0.646620000000     0.042980000000    -0.2043     
N        N      0.769720000000     0.428340000000     0.922320000000    -0.2043     
N        N      0.717160000000     0.475860000000     0.873420000000    -0.2043     
N        N      0.193140000000     0.142460000000     0.657460000000    -0.2043     
N        N      0.198520000000     0.166370000000     0.755890000000    -0.2043     
N        N      0.009700000000     0.353380000000     0.957020000000    -0.2043     
N        N      0.230280000000     0.571660000000     0.077680000000    -0.2043     
N        N      0.282840000000     0.524140000000     0.126580000000    -0.2043     
N        N      0.806860000000     0.857540000000     0.342540000000    -0.2043     
N        N      0.801480000000     0.833630000000     0.244110000000    -0.2043     
N        N      0.947320000000     0.957020000000     0.603640000000    -0.2043     
N        N      0.847400000000     0.077680000000     0.506020000000    -0.2043     
N        N      0.843740000000     0.126580000000     0.602440000000    -0.2043     
N        N      0.535680000000     0.342540000000     0.485000000000    -0.2043     
N        N      0.442630000000     0.244110000000     0.410480000000    -0.2043     
N        N      0.052680000000     0.042980000000     0.396360000000    -0.2043     
N        N      0.152600000000     0.922320000000     0.493980000000    -0.2043     
N        N      0.156260000000     0.873420000000     0.397560000000    -0.2043     
N        N      0.464320000000     0.657460000000     0.515000000000    -0.2043     
N        N      0.557370000000     0.755890000000     0.589520000000    -0.2043     
N        N      0.343680000000     0.396360000000     0.353380000000    -0.2043     
N        N      0.341380000000     0.493980000000     0.571660000000    -0.2043     
N        N      0.241300000000     0.397560000000     0.524140000000    -0.2043     
N        N      0.050680000000     0.515000000000     0.857540000000    -0.2043     
N        N      0.032150000000     0.589520000000     0.833630000000    -0.2043     
N        N      0.656320000000     0.603640000000     0.646620000000    -0.2043     
N        N      0.658620000000     0.506020000000     0.428340000000    -0.2043     
N        N      0.758700000000     0.602440000000     0.475860000000    -0.2043     
N        N      0.949320000000     0.485000000000     0.142460000000    -0.2043     
N        N      0.967850000000     0.410480000000     0.166370000000    -0.2043     


