data_HAKWUM_original

_audit_creation_method RASPA-1.0
_audit_creation_date 2022-1-29
_audit_author_name 'Felipe Lopes de Oliveira <felipe.lopes.oliveira@ibm.com>'

_cell_length_a    5.0432
_cell_length_b    7.2468
_cell_length_c    8.3499
_cell_angle_alpha 107.489
_cell_angle_beta  92.444
_cell_angle_gamma 109.338
_cell_volume      271.189

_symmetry_cell_setting          triclinic
_symmetry_space_group_name_Hall 'P 1'
_symmetry_space_group_name_H-M  'P 1'
_symmetry_Int_Tables_number     1

_symmetry_equiv_pos_as_xyz 'x,y,z'

loop_
_atom_site_label
_atom_site_type_symbol
_atom_site_fract_x
_atom_site_fract_y
_atom_site_fract_z
_atom_site_charge
Ga       Ga     0.000000000000     0.500000000000     0.000000000000     3.78095    
Ga       Ga     0.500000000000     0.000000000000     0.000000000000     3.78095    
P        P      0.512700000000     0.546370000000     0.776030000000     0.774797   
P        P      0.487300000000     0.453630000000     0.223970000000     0.774797   
H        H      0.219600000000     0.479000000000     0.529800000000     0.0533865  
H        H      0.343000000000     0.302600000000     0.508400000000     0.0533865  
H        H      0.780400000000     0.521000000000     0.470200000000     0.0533865  
H        H      0.657000000000     0.697400000000     0.491600000000     0.0533865  
C        C      0.391600000000     0.451700000000     0.550300000000    -0.21116    
C        C      0.608400000000     0.548300000000     0.449700000000    -0.21116    
O        O      0.269000000000     0.433600000000     0.855700000000    -1.00643    
O        O      0.593100000000     0.781400000000     0.836800000000    -1.00643    
O        O      0.774400000000     0.490300000000     0.799500000000    -1.00643    
O        O      0.731000000000     0.566400000000     0.144300000000    -1.00643    
O        O      0.406900000000     0.218600000000     0.163200000000    -1.00643    
O        O      0.225600000000     0.509700000000     0.200500000000    -1.00643    
F        F      0.194700000000     0.797200000000     0.058900000000    -1.43207    
F        F      0.805300000000     0.202800000000     0.941100000000    -1.43207    


