data_HAMJOW_original

_audit_creation_method RASPA-1.0
_audit_creation_date 2022-1-30
_audit_author_name 'Felipe Lopes de Oliveira <felipe.lopes.oliveira@ibm.com>'

_cell_length_a    13.749
_cell_length_b    13.99
_cell_length_c    14.073
_cell_angle_alpha 110.538
_cell_angle_beta  90
_cell_angle_gamma 90
_cell_volume      2534.87

_symmetry_cell_setting          triclinic
_symmetry_space_group_name_Hall 'P 1'
_symmetry_space_group_name_H-M  'P 1'
_symmetry_Int_Tables_number     1

_symmetry_equiv_pos_as_xyz 'x,y,z'

loop_
_atom_site_label
_atom_site_type_symbol
_atom_site_fract_x
_atom_site_fract_y
_atom_site_fract_z
_atom_site_charge
Zn       Zn     0.058300000000     0.904920000000     0.957270000000     0.463883   
Zn       Zn     0.558300000000     0.095080000000     0.542730000000     0.463883   
Zn       Zn     0.941700000000     0.095080000000     0.042730000000     0.463883   
Zn       Zn     0.441700000000     0.904920000000     0.457270000000     0.463883   
H        H      0.894600000000     0.602200000000     0.166600000000     0.0757519  
H        H      0.916400000000     0.744500000000     0.119300000000     0.0757519  
H        H      0.767500000000     0.003900000000     0.268500000000     0.0757519  
H        H      0.700600000000     0.740100000000     0.314600000000     0.0757519  
H        H      0.021200000000     0.306700000000     0.116600000000     0.0757519  
H        H      0.969700000000     0.474200000000     0.177300000000     0.0757519  
H        H      0.691800000000     0.373800000000     0.159300000000     0.0757519  
H        H      0.749700000000     0.207000000000     0.096200000000     0.0757519  
H        H      0.394600000000     0.397800000000     0.333400000000     0.0757519  
H        H      0.416400000000     0.255500000000     0.380700000000     0.0757519  
H        H      0.267500000000     0.996100000000     0.231500000000     0.0757519  
H        H      0.200600000000     0.259900000000     0.185400000000     0.0757519  
H        H      0.521200000000     0.693300000000     0.383400000000     0.0757519  
H        H      0.469700000000     0.525800000000     0.322700000000     0.0757519  
H        H      0.191800000000     0.626200000000     0.340700000000     0.0757519  
H        H      0.249700000000     0.793000000000     0.403800000000     0.0757519  
H        H      0.105400000000     0.397800000000     0.833400000000     0.0757519  
H        H      0.083600000000     0.255500000000     0.880700000000     0.0757519  
H        H      0.232500000000     0.996100000000     0.731500000000     0.0757519  
H        H      0.299400000000     0.259900000000     0.685400000000     0.0757519  
H        H      0.978800000000     0.693300000000     0.883400000000     0.0757519  
H        H      0.030300000000     0.525800000000     0.822700000000     0.0757519  
H        H      0.308200000000     0.626200000000     0.840700000000     0.0757519  
H        H      0.250300000000     0.793000000000     0.903800000000     0.0757519  
H        H      0.605400000000     0.602200000000     0.666600000000     0.0757519  
H        H      0.583600000000     0.744500000000     0.619300000000     0.0757519  
H        H      0.732500000000     0.003900000000     0.768500000000     0.0757519  
H        H      0.799400000000     0.740100000000     0.814600000000     0.0757519  
H        H      0.478800000000     0.306700000000     0.616600000000     0.0757519  
H        H      0.530300000000     0.474200000000     0.677300000000     0.0757519  
H        H      0.808200000000     0.373800000000     0.659300000000     0.0757519  
H        H      0.750300000000     0.207000000000     0.596200000000     0.0757519  
C        C      0.813300000000     0.726600000000     0.215200000000     0.0463677  
C        C      0.866900000000     0.779000000000     0.165700000000     0.0463677  
C        C      0.848800000000     0.882000000000     0.183500000000     0.0463677  
C        C      0.777900000000     0.933000000000     0.253300000000     0.0463677  
C        C      0.722000000000     0.879600000000     0.300900000000     0.0463677  
C        C      0.739000000000     0.776200000000     0.282200000000     0.0463677  
C        C      0.781800000000     0.549200000000     0.211200000000     0.0463677  
C        C      0.953500000000     0.320500000000     0.125100000000     0.0463677  
C        C      0.923400000000     0.420500000000     0.161300000000     0.0463677  
C        C      0.825000000000     0.442400000000     0.174400000000     0.0463677  
C        C      0.759700000000     0.361300000000     0.150400000000     0.0463677  
C        C      0.794700000000     0.262000000000     0.113300000000     0.0463677  
C        C      0.905500000000     0.935700000000     0.124200000000     0.0463677  
C        C      0.643000000000     0.933300000000     0.375100000000     0.0463677  
C        C      0.313300000000     0.273400000000     0.284800000000     0.0463677  
C        C      0.366900000000     0.221000000000     0.334300000000     0.0463677  
C        C      0.348800000000     0.118000000000     0.316500000000     0.0463677  
C        C      0.277900000000     0.067000000000     0.246700000000     0.0463677  
C        C      0.222000000000     0.120400000000     0.199100000000     0.0463677  
C        C      0.239000000000     0.223800000000     0.217800000000     0.0463677  
C        C      0.281800000000     0.450800000000     0.288800000000     0.0463677  
C        C      0.453500000000     0.679500000000     0.374900000000     0.0463677  
C        C      0.423400000000     0.579500000000     0.338700000000     0.0463677  
C        C      0.325000000000     0.557600000000     0.325600000000     0.0463677  
C        C      0.259700000000     0.638700000000     0.349600000000     0.0463677  
C        C      0.294700000000     0.738000000000     0.386700000000     0.0463677  
C        C      0.405500000000     0.064300000000     0.375800000000     0.0463677  
C        C      0.143000000000     0.066700000000     0.124900000000     0.0463677  
C        C      0.186700000000     0.273400000000     0.784800000000     0.0463677  
C        C      0.133100000000     0.221000000000     0.834300000000     0.0463677  
C        C      0.151200000000     0.118000000000     0.816500000000     0.0463677  
C        C      0.222100000000     0.067000000000     0.746700000000     0.0463677  
C        C      0.278000000000     0.120400000000     0.699100000000     0.0463677  
C        C      0.261000000000     0.223800000000     0.717800000000     0.0463677  
C        C      0.218200000000     0.450800000000     0.788800000000     0.0463677  
C        C      0.046500000000     0.679500000000     0.874900000000     0.0463677  
C        C      0.076600000000     0.579500000000     0.838700000000     0.0463677  
C        C      0.175000000000     0.557600000000     0.825600000000     0.0463677  
C        C      0.240300000000     0.638700000000     0.849600000000     0.0463677  
C        C      0.205300000000     0.738000000000     0.886700000000     0.0463677  
C        C      0.094500000000     0.064300000000     0.875800000000     0.0463677  
C        C      0.357000000000     0.066700000000     0.624900000000     0.0463677  
C        C      0.686700000000     0.726600000000     0.715200000000     0.0463677  
C        C      0.633100000000     0.779000000000     0.665700000000     0.0463677  
C        C      0.651200000000     0.882000000000     0.683500000000     0.0463677  
C        C      0.722100000000     0.933000000000     0.753300000000     0.0463677  
C        C      0.778000000000     0.879600000000     0.800900000000     0.0463677  
C        C      0.761000000000     0.776200000000     0.782200000000     0.0463677  
C        C      0.718200000000     0.549200000000     0.711200000000     0.0463677  
C        C      0.546500000000     0.320500000000     0.625100000000     0.0463677  
C        C      0.576600000000     0.420500000000     0.661300000000     0.0463677  
C        C      0.675000000000     0.442400000000     0.674400000000     0.0463677  
C        C      0.740300000000     0.361300000000     0.650400000000     0.0463677  
C        C      0.705300000000     0.262000000000     0.613300000000     0.0463677  
C        C      0.594500000000     0.935700000000     0.624200000000     0.0463677  
C        C      0.857000000000     0.933300000000     0.875100000000     0.0463677  
N        N      0.837200000000     0.622000000000     0.194000000000    -0.192463   
N        N      0.890900000000     0.241000000000     0.101000000000    -0.192463   
N        N      0.337200000000     0.378000000000     0.306000000000    -0.192463   
N        N      0.390900000000     0.759000000000     0.399000000000    -0.192463   
N        N      0.162800000000     0.378000000000     0.806000000000    -0.192463   
N        N      0.109100000000     0.759000000000     0.899000000000    -0.192463   
N        N      0.662800000000     0.622000000000     0.694000000000    -0.192463   
N        N      0.609100000000     0.241000000000     0.601000000000    -0.192463   
O        O      0.702600000000     0.565100000000     0.252600000000    -0.266824   
O        O      0.973000000000     0.884500000000     0.069000000000    -0.266824   
O        O      0.879700000000     0.024500000000     0.132400000000    -0.266824   
O        O      0.657000000000     0.024200000000     0.431800000000    -0.266824   
O        O      0.567800000000     0.880300000000     0.374400000000    -0.266824   
O        O      0.202600000000     0.434900000000     0.247400000000    -0.266824   
O        O      0.473000000000     0.115500000000     0.431000000000    -0.266824   
O        O      0.379700000000     0.975500000000     0.367600000000    -0.266824   
O        O      0.157000000000     0.975800000000     0.068200000000    -0.266824   
O        O      0.067800000000     0.119700000000     0.125600000000    -0.266824   
O        O      0.297400000000     0.434900000000     0.747400000000    -0.266824   
O        O      0.027000000000     0.115500000000     0.931000000000    -0.266824   
O        O      0.120300000000     0.975500000000     0.867600000000    -0.266824   
O        O      0.343000000000     0.975800000000     0.568200000000    -0.266824   
O        O      0.432200000000     0.119700000000     0.625600000000    -0.266824   
O        O      0.797400000000     0.565100000000     0.752600000000    -0.266824   
O        O      0.527000000000     0.884500000000     0.569000000000    -0.266824   
O        O      0.620300000000     0.024500000000     0.632400000000    -0.266824   
O        O      0.843000000000     0.024200000000     0.931800000000    -0.266824   
O        O      0.932200000000     0.880300000000     0.874400000000    -0.266824   


