data_HEBZEV_original

_audit_creation_method RASPA-1.0
_audit_creation_date 2022-1-29
_audit_author_name 'Felipe Lopes de Oliveira <felipe.lopes.oliveira@ibm.com>'

_cell_length_a    17.8709
_cell_length_b    17.8709
_cell_length_c    18.6382
_cell_angle_alpha 90
_cell_angle_beta  90
_cell_angle_gamma 120
_cell_volume      5154.99

_symmetry_cell_setting          triclinic
_symmetry_space_group_name_Hall 'P 1'
_symmetry_space_group_name_H-M  'P 1'
_symmetry_Int_Tables_number     1

_symmetry_equiv_pos_as_xyz 'x,y,z'

loop_
_atom_site_label
_atom_site_type_symbol
_atom_site_fract_x
_atom_site_fract_y
_atom_site_fract_z
_atom_site_charge
Zn       Zn     0.658663000000     0.044243000000     0.289349000000     0.441719   
Zn       Zn     0.955757000000     0.614420000000     0.289349000000     0.441719   
Zn       Zn     0.385580000000     0.341337000000     0.289349000000     0.441719   
Zn       Zn     0.325330000000     0.377576000000     0.622682000000     0.441719   
Zn       Zn     0.622424000000     0.947753000000     0.622682000000     0.441719   
Zn       Zn     0.052247000000     0.674670000000     0.622682000000     0.441719   
Zn       Zn     0.991996000000     0.710910000000     0.956016000000     0.441719   
Zn       Zn     0.289090000000     0.281087000000     0.956016000000     0.441719   
Zn       Zn     0.718913000000     0.008004000000     0.956016000000     0.441719   
Zn       Zn     0.341337000000     0.955757000000     0.710651000000     0.441719   
Zn       Zn     0.044243000000     0.385580000000     0.710651000000     0.441719   
Zn       Zn     0.614420000000     0.658663000000     0.710651000000     0.441719   
Zn       Zn     0.674670000000     0.622424000000     0.377318000000     0.441719   
Zn       Zn     0.377576000000     0.052247000000     0.377318000000     0.441719   
Zn       Zn     0.947753000000     0.325330000000     0.377318000000     0.441719   
Zn       Zn     0.008004000000     0.289090000000     0.043984000000     0.441719   
Zn       Zn     0.710910000000     0.718913000000     0.043984000000     0.441719   
Zn       Zn     0.281087000000     0.991996000000     0.043984000000     0.441719   
H        H      0.687000000000     0.816000000000     0.193000000000     0.225675   
H        H      0.184000000000     0.871000000000     0.193000000000     0.225675   
H        H      0.129000000000     0.313000000000     0.193000000000     0.225675   
H        H      0.353667000000     0.149333000000     0.526333000000     0.225675   
H        H      0.850667000000     0.204333000000     0.526333000000     0.225675   
H        H      0.795667000000     0.646333000000     0.526333000000     0.225675   
H        H      0.020333000000     0.482667000000     0.859667000000     0.225675   
H        H      0.517333000000     0.537667000000     0.859667000000     0.225675   
H        H      0.462333000000     0.979667000000     0.859667000000     0.225675   
H        H      0.313000000000     0.184000000000     0.807000000000     0.225675   
H        H      0.816000000000     0.129000000000     0.807000000000     0.225675   
H        H      0.871000000000     0.687000000000     0.807000000000     0.225675   
H        H      0.646333000000     0.850667000000     0.473667000000     0.225675   
H        H      0.149333000000     0.795667000000     0.473667000000     0.225675   
H        H      0.204333000000     0.353667000000     0.473667000000     0.225675   
H        H      0.979667000000     0.517333000000     0.140333000000     0.225675   
H        H      0.482667000000     0.462333000000     0.140333000000     0.225675   
H        H      0.537667000000     0.020333000000     0.140333000000     0.225675   
H        H      0.670000000000     0.795000000000     0.271800000000     0.225675   
H        H      0.205000000000     0.875000000000     0.271800000000     0.225675   
H        H      0.125000000000     0.330000000000     0.271800000000     0.225675   
H        H      0.336667000000     0.128333000000     0.605133000000     0.225675   
H        H      0.871667000000     0.208333000000     0.605133000000     0.225675   
H        H      0.791667000000     0.663333000000     0.605133000000     0.225675   
H        H      0.003333000000     0.461667000000     0.938467000000     0.225675   
H        H      0.538333000000     0.541667000000     0.938467000000     0.225675   
H        H      0.458333000000     0.996667000000     0.938467000000     0.225675   
H        H      0.330000000000     0.205000000000     0.728200000000     0.225675   
H        H      0.795000000000     0.125000000000     0.728200000000     0.225675   
H        H      0.875000000000     0.670000000000     0.728200000000     0.225675   
H        H      0.663333000000     0.871667000000     0.394867000000     0.225675   
H        H      0.128333000000     0.791667000000     0.394867000000     0.225675   
H        H      0.208333000000     0.336667000000     0.394867000000     0.225675   
H        H      0.996667000000     0.538333000000     0.061533000000     0.225675   
H        H      0.461667000000     0.458333000000     0.061533000000     0.225675   
H        H      0.541667000000     0.003333000000     0.061533000000     0.225675   
H        H      0.727900000000     0.872900000000     0.964400000000     0.225675   
H        H      0.127100000000     0.855000000000     0.964400000000     0.225675   
H        H      0.145000000000     0.272100000000     0.964400000000     0.225675   
H        H      0.394567000000     0.206233000000     0.297733000000     0.225675   
H        H      0.793767000000     0.188333000000     0.297733000000     0.225675   
H        H      0.811667000000     0.605433000000     0.297733000000     0.225675   
H        H      0.061233000000     0.539567000000     0.631067000000     0.225675   
H        H      0.460433000000     0.521667000000     0.631067000000     0.225675   
H        H      0.478333000000     0.938767000000     0.631067000000     0.225675   
H        H      0.272100000000     0.127100000000     0.035600000000     0.225675   
H        H      0.872900000000     0.145000000000     0.035600000000     0.225675   
H        H      0.855000000000     0.727900000000     0.035600000000     0.225675   
H        H      0.605433000000     0.793767000000     0.702267000000     0.225675   
H        H      0.206233000000     0.811667000000     0.702267000000     0.225675   
H        H      0.188333000000     0.394567000000     0.702267000000     0.225675   
H        H      0.938767000000     0.460433000000     0.368933000000     0.225675   
H        H      0.539567000000     0.478333000000     0.368933000000     0.225675   
H        H      0.521667000000     0.061233000000     0.368933000000     0.225675   
C        C      0.716790000000     0.071960000000     0.123370000000     0.162461   
C        C      0.928040000000     0.644830000000     0.123370000000     0.162461   
C        C      0.355170000000     0.283210000000     0.123370000000     0.162461   
C        C      0.383457000000     0.405293000000     0.456703000000     0.162461   
C        C      0.594707000000     0.978163000000     0.456703000000     0.162461   
C        C      0.021837000000     0.616543000000     0.456703000000     0.162461   
C        C      0.050123000000     0.738627000000     0.790037000000     0.162461   
C        C      0.261373000000     0.311497000000     0.790037000000     0.162461   
C        C      0.688503000000     0.949877000000     0.790037000000     0.162461   
C        C      0.283210000000     0.928040000000     0.876630000000     0.162461   
C        C      0.071960000000     0.355170000000     0.876630000000     0.162461   
C        C      0.644830000000     0.716790000000     0.876630000000     0.162461   
C        C      0.616543000000     0.594707000000     0.543297000000     0.162461   
C        C      0.405293000000     0.021837000000     0.543297000000     0.162461   
C        C      0.978163000000     0.383457000000     0.543297000000     0.162461   
C        C      0.949877000000     0.261373000000     0.209963000000     0.162461   
C        C      0.738627000000     0.688503000000     0.209963000000     0.162461   
C        C      0.311497000000     0.050123000000     0.209963000000     0.162461   
C        C      0.675050000000     0.900260000000     0.237460000000     0.162461   
C        C      0.099740000000     0.774790000000     0.237460000000     0.162461   
C        C      0.225210000000     0.324950000000     0.237460000000     0.162461   
C        C      0.341717000000     0.233593000000     0.570793000000     0.162461   
C        C      0.766407000000     0.108123000000     0.570793000000     0.162461   
C        C      0.891877000000     0.658283000000     0.570793000000     0.162461   
C        C      0.008383000000     0.566927000000     0.904127000000     0.162461   
C        C      0.433073000000     0.441457000000     0.904127000000     0.162461   
C        C      0.558543000000     0.991617000000     0.904127000000     0.162461   
C        C      0.324950000000     0.099740000000     0.762540000000     0.162461   
C        C      0.900260000000     0.225210000000     0.762540000000     0.162461   
C        C      0.774790000000     0.675050000000     0.762540000000     0.162461   
C        C      0.658283000000     0.766407000000     0.429207000000     0.162461   
C        C      0.233593000000     0.891877000000     0.429207000000     0.162461   
C        C      0.108123000000     0.341717000000     0.429207000000     0.162461   
C        C      0.991617000000     0.433073000000     0.095873000000     0.162461   
C        C      0.566927000000     0.558543000000     0.095873000000     0.162461   
C        C      0.441457000000     0.008383000000     0.095873000000     0.162461   
C        C      0.694860000000     0.956280000000     0.174060000000     0.162461   
C        C      0.043720000000     0.738580000000     0.174060000000     0.162461   
C        C      0.261420000000     0.305140000000     0.174060000000     0.162461   
C        C      0.361527000000     0.289613000000     0.507393000000     0.162461   
C        C      0.710387000000     0.071913000000     0.507393000000     0.162461   
C        C      0.928087000000     0.638473000000     0.507393000000     0.162461   
C        C      0.028193000000     0.622947000000     0.840727000000     0.162461   
C        C      0.377053000000     0.405247000000     0.840727000000     0.162461   
C        C      0.594753000000     0.971807000000     0.840727000000     0.162461   
C        C      0.305140000000     0.043720000000     0.825940000000     0.162461   
C        C      0.956280000000     0.261420000000     0.825940000000     0.162461   
C        C      0.738580000000     0.694860000000     0.825940000000     0.162461   
C        C      0.638473000000     0.710387000000     0.492607000000     0.162461   
C        C      0.289613000000     0.928087000000     0.492607000000     0.162461   
C        C      0.071913000000     0.361527000000     0.492607000000     0.162461   
C        C      0.971807000000     0.377053000000     0.159273000000     0.162461   
C        C      0.622947000000     0.594753000000     0.159273000000     0.162461   
C        C      0.405247000000     0.028193000000     0.159273000000     0.162461   
C        C      0.712440000000     0.952700000000     0.102320000000     0.162461   
C        C      0.047300000000     0.759740000000     0.102320000000     0.162461   
C        C      0.240260000000     0.287560000000     0.102320000000     0.162461   
C        C      0.379107000000     0.286033000000     0.435653000000     0.162461   
C        C      0.713967000000     0.093073000000     0.435653000000     0.162461   
C        C      0.906927000000     0.620893000000     0.435653000000     0.162461   
C        C      0.045773000000     0.619367000000     0.768987000000     0.162461   
C        C      0.380633000000     0.426407000000     0.768987000000     0.162461   
C        C      0.573593000000     0.954227000000     0.768987000000     0.162461   
C        C      0.287560000000     0.047300000000     0.897680000000     0.162461   
C        C      0.952700000000     0.240260000000     0.897680000000     0.162461   
C        C      0.759740000000     0.712440000000     0.897680000000     0.162461   
C        C      0.620893000000     0.713967000000     0.564347000000     0.162461   
C        C      0.286033000000     0.906927000000     0.564347000000     0.162461   
C        C      0.093073000000     0.379107000000     0.564347000000     0.162461   
C        C      0.954227000000     0.380633000000     0.231013000000     0.162461   
C        C      0.619367000000     0.573593000000     0.231013000000     0.162461   
C        C      0.426407000000     0.045773000000     0.231013000000     0.162461   
C        C      0.716560000000     0.887660000000     0.056360000000     0.162461   
C        C      0.112340000000     0.828900000000     0.056360000000     0.162461   
C        C      0.171100000000     0.283440000000     0.056360000000     0.162461   
C        C      0.383227000000     0.220993000000     0.389693000000     0.162461   
C        C      0.779007000000     0.162233000000     0.389693000000     0.162461   
C        C      0.837767000000     0.616773000000     0.389693000000     0.162461   
C        C      0.049893000000     0.554327000000     0.723027000000     0.162461   
C        C      0.445673000000     0.495567000000     0.723027000000     0.162461   
C        C      0.504433000000     0.950107000000     0.723027000000     0.162461   
C        C      0.283440000000     0.112340000000     0.943640000000     0.162461   
C        C      0.887660000000     0.171100000000     0.943640000000     0.162461   
C        C      0.828900000000     0.716560000000     0.943640000000     0.162461   
C        C      0.616773000000     0.779007000000     0.610307000000     0.162461   
C        C      0.220993000000     0.837767000000     0.610307000000     0.162461   
C        C      0.162233000000     0.383227000000     0.610307000000     0.162461   
C        C      0.950107000000     0.445673000000     0.276973000000     0.162461   
C        C      0.554327000000     0.504433000000     0.276973000000     0.162461   
C        C      0.495567000000     0.049893000000     0.276973000000     0.162461   
N        N      0.726240000000     0.027600000000     0.070240000000    -0.258983   
N        N      0.972400000000     0.698640000000     0.070240000000    -0.258983   
N        N      0.301360000000     0.273760000000     0.070240000000    -0.258983   
N        N      0.392907000000     0.360933000000     0.403573000000    -0.258983   
N        N      0.639067000000     0.031973000000     0.403573000000    -0.258983   
N        N      0.968027000000     0.607093000000     0.403573000000    -0.258983   
N        N      0.059573000000     0.694267000000     0.736907000000    -0.258983   
N        N      0.305733000000     0.365307000000     0.736907000000    -0.258983   
N        N      0.634693000000     0.940427000000     0.736907000000    -0.258983   
N        N      0.273760000000     0.972400000000     0.929760000000    -0.258983   
N        N      0.027600000000     0.301360000000     0.929760000000    -0.258983   
N        N      0.698640000000     0.726240000000     0.929760000000    -0.258983   
N        N      0.607093000000     0.639067000000     0.596427000000    -0.258983   
N        N      0.360933000000     0.968027000000     0.596427000000    -0.258983   
N        N      0.031973000000     0.392907000000     0.596427000000    -0.258983   
N        N      0.940427000000     0.305733000000     0.263093000000    -0.258983   
N        N      0.694267000000     0.634693000000     0.263093000000    -0.258983   
N        N      0.365307000000     0.059573000000     0.263093000000    -0.258983   
N        N      0.697700000000     0.033150000000     0.186390000000    -0.258983   
N        N      0.966850000000     0.664550000000     0.186390000000    -0.258983   
N        N      0.335450000000     0.302300000000     0.186390000000    -0.258983   
N        N      0.364367000000     0.366483000000     0.519723000000    -0.258983   
N        N      0.633517000000     0.997883000000     0.519723000000    -0.258983   
N        N      0.002117000000     0.635633000000     0.519723000000    -0.258983   
N        N      0.031033000000     0.699817000000     0.853057000000    -0.258983   
N        N      0.300183000000     0.331217000000     0.853057000000    -0.258983   
N        N      0.668783000000     0.968967000000     0.853057000000    -0.258983   
N        N      0.302300000000     0.966850000000     0.813610000000    -0.258983   
N        N      0.033150000000     0.335450000000     0.813610000000    -0.258983   
N        N      0.664550000000     0.697700000000     0.813610000000    -0.258983   
N        N      0.635633000000     0.633517000000     0.480277000000    -0.258983   
N        N      0.366483000000     0.002117000000     0.480277000000    -0.258983   
N        N      0.997883000000     0.364367000000     0.480277000000    -0.258983   
N        N      0.968967000000     0.300183000000     0.146943000000    -0.258983   
N        N      0.699817000000     0.668783000000     0.146943000000    -0.258983   
N        N      0.331217000000     0.031033000000     0.146943000000    -0.258983   
N        N      0.674500000000     0.827060000000     0.231810000000    -0.258983   
N        N      0.172940000000     0.847440000000     0.231810000000    -0.258983   
N        N      0.152560000000     0.325500000000     0.231810000000    -0.258983   
N        N      0.341167000000     0.160393000000     0.565143000000    -0.258983   
N        N      0.839607000000     0.180773000000     0.565143000000    -0.258983   
N        N      0.819227000000     0.658833000000     0.565143000000    -0.258983   
N        N      0.007833000000     0.493727000000     0.898477000000    -0.258983   
N        N      0.506273000000     0.514107000000     0.898477000000    -0.258983   
N        N      0.485893000000     0.992167000000     0.898477000000    -0.258983   
N        N      0.325500000000     0.172940000000     0.768190000000    -0.258983   
N        N      0.827060000000     0.152560000000     0.768190000000    -0.258983   
N        N      0.847440000000     0.674500000000     0.768190000000    -0.258983   
N        N      0.658833000000     0.839607000000     0.434857000000    -0.258983   
N        N      0.160393000000     0.819227000000     0.434857000000    -0.258983   
N        N      0.180773000000     0.341167000000     0.434857000000    -0.258983   
N        N      0.992167000000     0.506273000000     0.101523000000    -0.258983   
N        N      0.493727000000     0.485893000000     0.101523000000    -0.258983   
N        N      0.514107000000     0.007833000000     0.101523000000    -0.258983   
N        N      0.729000000000     0.907850000000     0.988980000000    -0.258983   
N        N      0.092150000000     0.821150000000     0.988980000000    -0.258983   
N        N      0.178850000000     0.271000000000     0.988980000000    -0.258983   
N        N      0.395667000000     0.241183000000     0.322313000000    -0.258983   
N        N      0.758817000000     0.154483000000     0.322313000000    -0.258983   
N        N      0.845517000000     0.604333000000     0.322313000000    -0.258983   
N        N      0.062333000000     0.574517000000     0.655647000000    -0.258983   
N        N      0.425483000000     0.487817000000     0.655647000000    -0.258983   
N        N      0.512183000000     0.937667000000     0.655647000000    -0.258983   
N        N      0.271000000000     0.092150000000     0.011020000000    -0.258983   
N        N      0.907850000000     0.178850000000     0.011020000000    -0.258983   
N        N      0.821150000000     0.729000000000     0.011020000000    -0.258983   
N        N      0.604333000000     0.758817000000     0.677687000000    -0.258983   
N        N      0.241183000000     0.845517000000     0.677687000000    -0.258983   
N        N      0.154483000000     0.395667000000     0.677687000000    -0.258983   
N        N      0.937667000000     0.425483000000     0.344353000000    -0.258983   
N        N      0.574517000000     0.512183000000     0.344353000000    -0.258983   
N        N      0.487817000000     0.062333000000     0.344353000000    -0.258983   
Cl       Cl     0.730820000000     0.173100000000     0.111790000000    -0.340435   
Cl       Cl     0.826900000000     0.557720000000     0.111790000000    -0.340435   
Cl       Cl     0.442280000000     0.269180000000     0.111790000000    -0.340435   
Cl       Cl     0.397487000000     0.506433000000     0.445123000000    -0.340435   
Cl       Cl     0.493567000000     0.891053000000     0.445123000000    -0.340435   
Cl       Cl     0.108947000000     0.602513000000     0.445123000000    -0.340435   
Cl       Cl     0.064153000000     0.839767000000     0.778457000000    -0.340435   
Cl       Cl     0.160233000000     0.224387000000     0.778457000000    -0.340435   
Cl       Cl     0.775613000000     0.935847000000     0.778457000000    -0.340435   
Cl       Cl     0.269180000000     0.826900000000     0.888210000000    -0.340435   
Cl       Cl     0.173100000000     0.442280000000     0.888210000000    -0.340435   
Cl       Cl     0.557720000000     0.730820000000     0.888210000000    -0.340435   
Cl       Cl     0.602513000000     0.493567000000     0.554877000000    -0.340435   
Cl       Cl     0.506433000000     0.108947000000     0.554877000000    -0.340435   
Cl       Cl     0.891053000000     0.397487000000     0.554877000000    -0.340435   
Cl       Cl     0.935847000000     0.160233000000     0.221543000000    -0.340435   
Cl       Cl     0.839767000000     0.775613000000     0.221543000000    -0.340435   
Cl       Cl     0.224387000000     0.064153000000     0.221543000000    -0.340435   
O        O      0.659610000000     0.926060000000     0.295360000000    -0.277343   
O        O      0.073940000000     0.733550000000     0.295360000000    -0.277343   
O        O      0.266450000000     0.340390000000     0.295360000000    -0.277343   
O        O      0.326277000000     0.259393000000     0.628693000000    -0.277343   
O        O      0.740607000000     0.066883000000     0.628693000000    -0.277343   
O        O      0.933117000000     0.673723000000     0.628693000000    -0.277343   
O        O      0.992943000000     0.592727000000     0.962027000000    -0.277343   
O        O      0.407273000000     0.400217000000     0.962027000000    -0.277343   
O        O      0.599783000000     0.007057000000     0.962027000000    -0.277343   
O        O      0.340390000000     0.073940000000     0.704640000000    -0.277343   
O        O      0.926060000000     0.266450000000     0.704640000000    -0.277343   
O        O      0.733550000000     0.659610000000     0.704640000000    -0.277343   
O        O      0.673723000000     0.740607000000     0.371307000000    -0.277343   
O        O      0.259393000000     0.933117000000     0.371307000000    -0.277343   
O        O      0.066883000000     0.326277000000     0.371307000000    -0.277343   
O        O      0.007057000000     0.407273000000     0.037973000000    -0.277343   
O        O      0.592727000000     0.599783000000     0.037973000000    -0.277343   
O        O      0.400217000000     0.992943000000     0.037973000000    -0.277343   
O        O      0.707870000000     0.819200000000     0.086120000000    -0.277343   
O        O      0.180800000000     0.888670000000     0.086120000000    -0.277343   
O        O      0.111330000000     0.292130000000     0.086120000000    -0.277343   
O        O      0.374537000000     0.152533000000     0.419453000000    -0.277343   
O        O      0.847467000000     0.222003000000     0.419453000000    -0.277343   
O        O      0.777997000000     0.625463000000     0.419453000000    -0.277343   
O        O      0.041203000000     0.485867000000     0.752787000000    -0.277343   
O        O      0.514133000000     0.555337000000     0.752787000000    -0.277343   
O        O      0.444663000000     0.958797000000     0.752787000000    -0.277343   
O        O      0.292130000000     0.180800000000     0.913880000000    -0.277343   
O        O      0.819200000000     0.111330000000     0.913880000000    -0.277343   
O        O      0.888670000000     0.707870000000     0.913880000000    -0.277343   
O        O      0.625463000000     0.847467000000     0.580547000000    -0.277343   
O        O      0.152533000000     0.777997000000     0.580547000000    -0.277343   
O        O      0.222003000000     0.374537000000     0.580547000000    -0.277343   
O        O      0.958797000000     0.514133000000     0.247213000000    -0.277343   
O        O      0.485867000000     0.444663000000     0.247213000000    -0.277343   
O        O      0.555337000000     0.041203000000     0.247213000000    -0.277343   


