data_HEDCEA_original

_audit_creation_method RASPA-1.0
_audit_creation_date 2022-1-29
_audit_author_name 'Felipe Lopes de Oliveira <felipe.lopes.oliveira@ibm.com>'

_cell_length_a    11.0644
_cell_length_b    16.7758
_cell_length_c    22.4317
_cell_angle_alpha 90
_cell_angle_beta  90
_cell_angle_gamma 90
_cell_volume      4163.64

_symmetry_cell_setting          triclinic
_symmetry_space_group_name_Hall 'P 1'
_symmetry_space_group_name_H-M  'P 1'
_symmetry_Int_Tables_number     1

_symmetry_equiv_pos_as_xyz 'x,y,z'

loop_
_atom_site_label
_atom_site_type_symbol
_atom_site_fract_x
_atom_site_fract_y
_atom_site_fract_z
_atom_site_charge
Zn       Zn     0.093740000000     0.059030000000     0.508760000000     0.474225   
Zn       Zn     0.906260000000     0.440970000000     0.508760000000     0.474225   
Zn       Zn     0.093740000000     0.940970000000     0.991240000000     0.474225   
Zn       Zn     0.906260000000     0.559030000000     0.991240000000     0.474225   
Zn       Zn     0.906260000000     0.940970000000     0.491240000000     0.474225   
Zn       Zn     0.093740000000     0.559030000000     0.491240000000     0.474225   
Zn       Zn     0.906260000000     0.059030000000     0.008760000000     0.474225   
Zn       Zn     0.093740000000     0.440970000000     0.008760000000     0.474225   
H        H      0.329700000000     0.302700000000     0.563300000000     0.066518   
H        H      0.419500000000     0.570000000000     0.778700000000     0.066518   
H        H      0.197800000000     0.654100000000     0.637600000000     0.066518   
H        H      0.158200000000     0.732200000000     0.757900000000     0.066518   
H        H      0.411500000000     0.829800000000     0.694200000000     0.066518   
H        H      0.055500000000     0.677500000000     0.837400000000     0.066518   
H        H      0.523700000000     0.127200000000     0.491200000000     0.066518   
H        H      0.350300000000     0.054300000000     0.484800000000     0.066518   
H        H      0.313800000000     0.917300000000     0.629500000000     0.066518   
H        H      0.316800000000     0.515800000000     0.857700000000     0.066518   
H        H      0.160200000000     0.222900000000     0.555500000000     0.066518   
H        H      0.100100000000     0.740700000000     0.574500000000     0.066518   
H        H      0.670300000000     0.197300000000     0.563300000000     0.066518   
H        H      0.580500000000     0.930000000000     0.778700000000     0.066518   
H        H      0.802200000000     0.845900000000     0.637600000000     0.066518   
H        H      0.841800000000     0.767800000000     0.757900000000     0.066518   
H        H      0.588500000000     0.670200000000     0.694200000000     0.066518   
H        H      0.944500000000     0.822500000000     0.837400000000     0.066518   
H        H      0.476300000000     0.372800000000     0.491200000000     0.066518   
H        H      0.649700000000     0.445700000000     0.484800000000     0.066518   
H        H      0.686200000000     0.582700000000     0.629500000000     0.066518   
H        H      0.683200000000     0.984200000000     0.857700000000     0.066518   
H        H      0.839800000000     0.277100000000     0.555500000000     0.066518   
H        H      0.899900000000     0.759300000000     0.574500000000     0.066518   
H        H      0.329700000000     0.697300000000     0.936700000000     0.066518   
H        H      0.419500000000     0.430000000000     0.721300000000     0.066518   
H        H      0.197800000000     0.345900000000     0.862400000000     0.066518   
H        H      0.158200000000     0.267800000000     0.742100000000     0.066518   
H        H      0.411500000000     0.170200000000     0.805800000000     0.066518   
H        H      0.055500000000     0.322500000000     0.662600000000     0.066518   
H        H      0.523700000000     0.872800000000     0.008800000000     0.066518   
H        H      0.350300000000     0.945700000000     0.015200000000     0.066518   
H        H      0.313800000000     0.082700000000     0.870500000000     0.066518   
H        H      0.316800000000     0.484200000000     0.642300000000     0.066518   
H        H      0.160200000000     0.777100000000     0.944500000000     0.066518   
H        H      0.100100000000     0.259300000000     0.925500000000     0.066518   
H        H      0.670300000000     0.802700000000     0.936700000000     0.066518   
H        H      0.580500000000     0.070000000000     0.721300000000     0.066518   
H        H      0.802200000000     0.154100000000     0.862400000000     0.066518   
H        H      0.841800000000     0.232200000000     0.742100000000     0.066518   
H        H      0.588500000000     0.329800000000     0.805800000000     0.066518   
H        H      0.944500000000     0.177500000000     0.662600000000     0.066518   
H        H      0.476300000000     0.627200000000     0.008800000000     0.066518   
H        H      0.649700000000     0.554300000000     0.015200000000     0.066518   
H        H      0.686200000000     0.417300000000     0.870500000000     0.066518   
H        H      0.683200000000     0.015800000000     0.642300000000     0.066518   
H        H      0.839800000000     0.722900000000     0.944500000000     0.066518   
H        H      0.899900000000     0.240700000000     0.925500000000     0.066518   
H        H      0.670300000000     0.697300000000     0.436700000000     0.066518   
H        H      0.580500000000     0.430000000000     0.221300000000     0.066518   
H        H      0.802200000000     0.345900000000     0.362400000000     0.066518   
H        H      0.841800000000     0.267800000000     0.242100000000     0.066518   
H        H      0.588500000000     0.170200000000     0.305800000000     0.066518   
H        H      0.944500000000     0.322500000000     0.162600000000     0.066518   
H        H      0.476300000000     0.872800000000     0.508800000000     0.066518   
H        H      0.649700000000     0.945700000000     0.515200000000     0.066518   
H        H      0.686200000000     0.082700000000     0.370500000000     0.066518   
H        H      0.683200000000     0.484200000000     0.142300000000     0.066518   
H        H      0.839800000000     0.777100000000     0.444500000000     0.066518   
H        H      0.899900000000     0.259300000000     0.425500000000     0.066518   
H        H      0.329700000000     0.802700000000     0.436700000000     0.066518   
H        H      0.419500000000     0.070000000000     0.221300000000     0.066518   
H        H      0.197800000000     0.154100000000     0.362400000000     0.066518   
H        H      0.158200000000     0.232200000000     0.242100000000     0.066518   
H        H      0.411500000000     0.329800000000     0.305800000000     0.066518   
H        H      0.055500000000     0.177500000000     0.162600000000     0.066518   
H        H      0.523700000000     0.627200000000     0.508800000000     0.066518   
H        H      0.350300000000     0.554300000000     0.515200000000     0.066518   
H        H      0.313800000000     0.417300000000     0.370500000000     0.066518   
H        H      0.316800000000     0.015800000000     0.142300000000     0.066518   
H        H      0.160200000000     0.722900000000     0.444500000000     0.066518   
H        H      0.100100000000     0.240700000000     0.425500000000     0.066518   
H        H      0.670300000000     0.302700000000     0.063300000000     0.066518   
H        H      0.580500000000     0.570000000000     0.278700000000     0.066518   
H        H      0.802200000000     0.654100000000     0.137600000000     0.066518   
H        H      0.841800000000     0.732200000000     0.257900000000     0.066518   
H        H      0.588500000000     0.829800000000     0.194200000000     0.066518   
H        H      0.944500000000     0.677500000000     0.337400000000     0.066518   
H        H      0.476300000000     0.127200000000     0.991200000000     0.066518   
H        H      0.649700000000     0.054300000000     0.984800000000     0.066518   
H        H      0.686200000000     0.917300000000     0.129500000000     0.066518   
H        H      0.683200000000     0.515800000000     0.357700000000     0.066518   
H        H      0.839800000000     0.222900000000     0.055500000000     0.066518   
H        H      0.899900000000     0.740700000000     0.074500000000     0.066518   
H        H      0.329700000000     0.197300000000     0.063300000000     0.066518   
H        H      0.419500000000     0.930000000000     0.278700000000     0.066518   
H        H      0.197800000000     0.845900000000     0.137600000000     0.066518   
H        H      0.158200000000     0.767800000000     0.257900000000     0.066518   
H        H      0.411500000000     0.670200000000     0.194200000000     0.066518   
H        H      0.055500000000     0.822500000000     0.337400000000     0.066518   
H        H      0.523700000000     0.372800000000     0.991200000000     0.066518   
H        H      0.350300000000     0.445700000000     0.984800000000     0.066518   
H        H      0.313800000000     0.582700000000     0.129500000000     0.066518   
H        H      0.316800000000     0.984200000000     0.357700000000     0.066518   
H        H      0.160200000000     0.277100000000     0.055500000000     0.066518   
H        H      0.100100000000     0.759300000000     0.074500000000     0.066518   
C        C      0.336200000000     0.251900000000     0.546900000000     0.0246013  
C        C      0.346000000000     0.591800000000     0.790500000000     0.0246013  
C        C      0.219300000000     0.707700000000     0.636900000000     0.0246013  
C        C      0.189900000000     0.688600000000     0.778200000000     0.0246013  
C        C      0.347300000000     0.812400000000     0.670700000000     0.0246013  
C        C      0.104700000000     0.555100000000     0.906100000000     0.0246013  
C        C      0.299600000000     0.655800000000     0.761000000000     0.0246013  
C        C      0.128900000000     0.655500000000     0.825500000000     0.0246013  
C        C      0.450800000000     0.148500000000     0.504300000000     0.0246013  
C        C      0.346300000000     0.105200000000     0.501200000000     0.0246013  
C        C      0.288500000000     0.864500000000     0.632000000000     0.0246013  
C        C      0.123900000000     0.897000000000     0.559700000000     0.0246013  
C        C      0.308700000000     0.735200000000     0.673500000000     0.0246013  
C        C      0.174500000000     0.590300000000     0.855900000000     0.0246013  
C        C      0.193700000000     0.839000000000     0.597500000000     0.0246013  
C        C      0.284300000000     0.559300000000     0.837700000000     0.0246013  
C        C      0.445300000000     0.225100000000     0.527500000000     0.0246013  
C        C      0.234300000000     0.203600000000     0.542400000000     0.0246013  
C        C      0.161400000000     0.759300000000     0.599200000000     0.0246013  
C        C      0.663800000000     0.248100000000     0.546900000000     0.0246013  
C        C      0.654000000000     0.908200000000     0.790500000000     0.0246013  
C        C      0.780700000000     0.792300000000     0.636900000000     0.0246013  
C        C      0.810100000000     0.811400000000     0.778200000000     0.0246013  
C        C      0.652700000000     0.687600000000     0.670700000000     0.0246013  
C        C      0.895300000000     0.944900000000     0.906100000000     0.0246013  
C        C      0.700400000000     0.844200000000     0.761000000000     0.0246013  
C        C      0.871100000000     0.844500000000     0.825500000000     0.0246013  
C        C      0.549200000000     0.351500000000     0.504300000000     0.0246013  
C        C      0.653700000000     0.394800000000     0.501200000000     0.0246013  
C        C      0.711500000000     0.635500000000     0.632000000000     0.0246013  
C        C      0.876100000000     0.603000000000     0.559700000000     0.0246013  
C        C      0.691300000000     0.764800000000     0.673500000000     0.0246013  
C        C      0.825500000000     0.909700000000     0.855900000000     0.0246013  
C        C      0.806300000000     0.661000000000     0.597500000000     0.0246013  
C        C      0.715700000000     0.940700000000     0.837700000000     0.0246013  
C        C      0.554700000000     0.274900000000     0.527500000000     0.0246013  
C        C      0.765700000000     0.296400000000     0.542400000000     0.0246013  
C        C      0.838600000000     0.740700000000     0.599200000000     0.0246013  
C        C      0.336200000000     0.748100000000     0.953100000000     0.0246013  
C        C      0.346000000000     0.408200000000     0.709500000000     0.0246013  
C        C      0.219300000000     0.292300000000     0.863100000000     0.0246013  
C        C      0.189900000000     0.311400000000     0.721800000000     0.0246013  
C        C      0.347300000000     0.187600000000     0.829300000000     0.0246013  
C        C      0.104700000000     0.444900000000     0.593900000000     0.0246013  
C        C      0.299600000000     0.344200000000     0.739000000000     0.0246013  
C        C      0.128900000000     0.344500000000     0.674500000000     0.0246013  
C        C      0.450800000000     0.851500000000     0.995700000000     0.0246013  
C        C      0.346300000000     0.894800000000     0.998800000000     0.0246013  
C        C      0.288500000000     0.135500000000     0.868000000000     0.0246013  
C        C      0.123900000000     0.103000000000     0.940300000000     0.0246013  
C        C      0.308700000000     0.264800000000     0.826500000000     0.0246013  
C        C      0.174500000000     0.409700000000     0.644100000000     0.0246013  
C        C      0.193700000000     0.161000000000     0.902500000000     0.0246013  
C        C      0.284300000000     0.440700000000     0.662300000000     0.0246013  
C        C      0.445300000000     0.774900000000     0.972500000000     0.0246013  
C        C      0.234300000000     0.796400000000     0.957600000000     0.0246013  
C        C      0.161400000000     0.240700000000     0.900800000000     0.0246013  
C        C      0.663800000000     0.751900000000     0.953100000000     0.0246013  
C        C      0.654000000000     0.091800000000     0.709500000000     0.0246013  
C        C      0.780700000000     0.207700000000     0.863100000000     0.0246013  
C        C      0.810100000000     0.188600000000     0.721800000000     0.0246013  
C        C      0.652700000000     0.312400000000     0.829300000000     0.0246013  
C        C      0.895300000000     0.055100000000     0.593900000000     0.0246013  
C        C      0.700400000000     0.155800000000     0.739000000000     0.0246013  
C        C      0.871100000000     0.155500000000     0.674500000000     0.0246013  
C        C      0.549200000000     0.648500000000     0.995700000000     0.0246013  
C        C      0.653700000000     0.605200000000     0.998800000000     0.0246013  
C        C      0.711500000000     0.364500000000     0.868000000000     0.0246013  
C        C      0.876100000000     0.397000000000     0.940300000000     0.0246013  
C        C      0.691300000000     0.235200000000     0.826500000000     0.0246013  
C        C      0.825500000000     0.090300000000     0.644100000000     0.0246013  
C        C      0.806300000000     0.339000000000     0.902500000000     0.0246013  
C        C      0.715700000000     0.059300000000     0.662300000000     0.0246013  
C        C      0.554700000000     0.725100000000     0.972500000000     0.0246013  
C        C      0.765700000000     0.703600000000     0.957600000000     0.0246013  
C        C      0.838600000000     0.259300000000     0.900800000000     0.0246013  
C        C      0.663800000000     0.748100000000     0.453100000000     0.0246013  
C        C      0.654000000000     0.408200000000     0.209500000000     0.0246013  
C        C      0.780700000000     0.292300000000     0.363100000000     0.0246013  
C        C      0.810100000000     0.311400000000     0.221800000000     0.0246013  
C        C      0.652700000000     0.187600000000     0.329300000000     0.0246013  
C        C      0.895300000000     0.444900000000     0.093900000000     0.0246013  
C        C      0.700400000000     0.344200000000     0.239000000000     0.0246013  
C        C      0.871100000000     0.344500000000     0.174500000000     0.0246013  
C        C      0.549200000000     0.851500000000     0.495700000000     0.0246013  
C        C      0.653700000000     0.894800000000     0.498800000000     0.0246013  
C        C      0.711500000000     0.135500000000     0.368000000000     0.0246013  
C        C      0.876100000000     0.103000000000     0.440300000000     0.0246013  
C        C      0.691300000000     0.264800000000     0.326500000000     0.0246013  
C        C      0.825500000000     0.409700000000     0.144100000000     0.0246013  
C        C      0.806300000000     0.161000000000     0.402500000000     0.0246013  
C        C      0.715700000000     0.440700000000     0.162300000000     0.0246013  
C        C      0.554700000000     0.774900000000     0.472500000000     0.0246013  
C        C      0.765700000000     0.796400000000     0.457600000000     0.0246013  
C        C      0.838600000000     0.240700000000     0.400800000000     0.0246013  
C        C      0.336200000000     0.751900000000     0.453100000000     0.0246013  
C        C      0.346000000000     0.091800000000     0.209500000000     0.0246013  
C        C      0.219300000000     0.207700000000     0.363100000000     0.0246013  
C        C      0.189900000000     0.188600000000     0.221800000000     0.0246013  
C        C      0.347300000000     0.312400000000     0.329300000000     0.0246013  
C        C      0.104700000000     0.055100000000     0.093900000000     0.0246013  
C        C      0.299600000000     0.155800000000     0.239000000000     0.0246013  
C        C      0.128900000000     0.155500000000     0.174500000000     0.0246013  
C        C      0.450800000000     0.648500000000     0.495700000000     0.0246013  
C        C      0.346300000000     0.605200000000     0.498800000000     0.0246013  
C        C      0.288500000000     0.364500000000     0.368000000000     0.0246013  
C        C      0.123900000000     0.397000000000     0.440300000000     0.0246013  
C        C      0.308700000000     0.235200000000     0.326500000000     0.0246013  
C        C      0.174500000000     0.090300000000     0.144100000000     0.0246013  
C        C      0.193700000000     0.339000000000     0.402500000000     0.0246013  
C        C      0.284300000000     0.059300000000     0.162300000000     0.0246013  
C        C      0.445300000000     0.725100000000     0.472500000000     0.0246013  
C        C      0.234300000000     0.703600000000     0.457600000000     0.0246013  
C        C      0.161400000000     0.259300000000     0.400800000000     0.0246013  
C        C      0.663800000000     0.251900000000     0.046900000000     0.0246013  
C        C      0.654000000000     0.591800000000     0.290500000000     0.0246013  
C        C      0.780700000000     0.707700000000     0.136900000000     0.0246013  
C        C      0.810100000000     0.688600000000     0.278200000000     0.0246013  
C        C      0.652700000000     0.812400000000     0.170700000000     0.0246013  
C        C      0.895300000000     0.555100000000     0.406100000000     0.0246013  
C        C      0.700400000000     0.655800000000     0.261000000000     0.0246013  
C        C      0.871100000000     0.655500000000     0.325500000000     0.0246013  
C        C      0.549200000000     0.148500000000     0.004300000000     0.0246013  
C        C      0.653700000000     0.105200000000     0.001200000000     0.0246013  
C        C      0.711500000000     0.864500000000     0.132000000000     0.0246013  
C        C      0.876100000000     0.897000000000     0.059700000000     0.0246013  
C        C      0.691300000000     0.735200000000     0.173500000000     0.0246013  
C        C      0.825500000000     0.590300000000     0.355900000000     0.0246013  
C        C      0.806300000000     0.839000000000     0.097500000000     0.0246013  
C        C      0.715700000000     0.559300000000     0.337700000000     0.0246013  
C        C      0.554700000000     0.225100000000     0.027500000000     0.0246013  
C        C      0.765700000000     0.203600000000     0.042400000000     0.0246013  
C        C      0.838600000000     0.759300000000     0.099200000000     0.0246013  
C        C      0.336200000000     0.248100000000     0.046900000000     0.0246013  
C        C      0.346000000000     0.908200000000     0.290500000000     0.0246013  
C        C      0.219300000000     0.792300000000     0.136900000000     0.0246013  
C        C      0.189900000000     0.811400000000     0.278200000000     0.0246013  
C        C      0.347300000000     0.687600000000     0.170700000000     0.0246013  
C        C      0.104700000000     0.944900000000     0.406100000000     0.0246013  
C        C      0.299600000000     0.844200000000     0.261000000000     0.0246013  
C        C      0.128900000000     0.844500000000     0.325500000000     0.0246013  
C        C      0.450800000000     0.351500000000     0.004300000000     0.0246013  
C        C      0.346300000000     0.394800000000     0.001200000000     0.0246013  
C        C      0.288500000000     0.635500000000     0.132000000000     0.0246013  
C        C      0.123900000000     0.603000000000     0.059700000000     0.0246013  
C        C      0.308700000000     0.764800000000     0.173500000000     0.0246013  
C        C      0.174500000000     0.909700000000     0.355900000000     0.0246013  
C        C      0.193700000000     0.661000000000     0.097500000000     0.0246013  
C        C      0.284300000000     0.940700000000     0.337700000000     0.0246013  
C        C      0.445300000000     0.274900000000     0.027500000000     0.0246013  
C        C      0.234300000000     0.296400000000     0.042400000000     0.0246013  
C        C      0.161400000000     0.740700000000     0.099200000000     0.0246013  
N        N      0.240200000000     0.130700000000     0.519900000000    -0.163176   
N        N      0.759800000000     0.369300000000     0.519900000000    -0.163176   
N        N      0.240200000000     0.869300000000     0.980100000000    -0.163176   
N        N      0.759800000000     0.630700000000     0.980100000000    -0.163176   
N        N      0.759800000000     0.869300000000     0.480100000000    -0.163176   
N        N      0.240200000000     0.630700000000     0.480100000000    -0.163176   
N        N      0.759800000000     0.130700000000     0.019900000000    -0.163176   
N        N      0.240200000000     0.369300000000     0.019900000000    -0.163176   
O        O      0.150000000000     0.495500000000     0.932200000000    -0.315338   
O        O      0.167000000000     0.965200000000     0.553300000000    -0.315338   
O        O      0.006100000000     0.586400000000     0.918940000000    -0.315338   
O        O      0.025200000000     0.873600000000     0.538580000000    -0.315338   
O        O      0.366300000000     0.684700000000     0.713900000000    -0.315338   
O        O      0.850000000000     0.004500000000     0.932200000000    -0.315338   
O        O      0.833000000000     0.534800000000     0.553300000000    -0.315338   
O        O      0.993900000000     0.913600000000     0.918940000000    -0.315338   
O        O      0.974800000000     0.626400000000     0.538580000000    -0.315338   
O        O      0.633700000000     0.815300000000     0.713900000000    -0.315338   
O        O      0.150000000000     0.504500000000     0.567800000000    -0.315338   
O        O      0.167000000000     0.034800000000     0.946700000000    -0.315338   
O        O      0.006100000000     0.413600000000     0.581060000000    -0.315338   
O        O      0.025200000000     0.126400000000     0.961420000000    -0.315338   
O        O      0.366300000000     0.315300000000     0.786100000000    -0.315338   
O        O      0.850000000000     0.995500000000     0.567800000000    -0.315338   
O        O      0.833000000000     0.465200000000     0.946700000000    -0.315338   
O        O      0.993900000000     0.086400000000     0.581060000000    -0.315338   
O        O      0.974800000000     0.373600000000     0.961420000000    -0.315338   
O        O      0.633700000000     0.184700000000     0.786100000000    -0.315338   
O        O      0.850000000000     0.504500000000     0.067800000000    -0.315338   
O        O      0.833000000000     0.034800000000     0.446700000000    -0.315338   
O        O      0.993900000000     0.413600000000     0.081060000000    -0.315338   
O        O      0.974800000000     0.126400000000     0.461420000000    -0.315338   
O        O      0.633700000000     0.315300000000     0.286100000000    -0.315338   
O        O      0.150000000000     0.995500000000     0.067800000000    -0.315338   
O        O      0.167000000000     0.465200000000     0.446700000000    -0.315338   
O        O      0.006100000000     0.086400000000     0.081060000000    -0.315338   
O        O      0.025200000000     0.373600000000     0.461420000000    -0.315338   
O        O      0.366300000000     0.184700000000     0.286100000000    -0.315338   
O        O      0.850000000000     0.495500000000     0.432200000000    -0.315338   
O        O      0.833000000000     0.965200000000     0.053300000000    -0.315338   
O        O      0.993900000000     0.586400000000     0.418940000000    -0.315338   
O        O      0.974800000000     0.873600000000     0.038580000000    -0.315338   
O        O      0.633700000000     0.684700000000     0.213900000000    -0.315338   
O        O      0.150000000000     0.004500000000     0.432200000000    -0.315338   
O        O      0.167000000000     0.534800000000     0.053300000000    -0.315338   
O        O      0.006100000000     0.913600000000     0.418940000000    -0.315338   
O        O      0.025200000000     0.626400000000     0.038580000000    -0.315338   
O        O      0.366300000000     0.815300000000     0.213900000000    -0.315338   


