data_HEGJUZ_original

_audit_creation_method RASPA-1.0
_audit_creation_date 2022-1-31
_audit_author_name 'Felipe Lopes de Oliveira <felipe.lopes.oliveira@ibm.com>'

_cell_length_a    14.608
_cell_length_b    18.041
_cell_length_c    24.803
_cell_angle_alpha 90
_cell_angle_beta  90.005
_cell_angle_gamma 90
_cell_volume      6536.66

_symmetry_cell_setting          triclinic
_symmetry_space_group_name_Hall 'P 1'
_symmetry_space_group_name_H-M  'P 1'
_symmetry_Int_Tables_number     1

_symmetry_equiv_pos_as_xyz 'x,y,z'

loop_
_atom_site_label
_atom_site_type_symbol
_atom_site_fract_x
_atom_site_fract_y
_atom_site_fract_z
_atom_site_charge
Zn       Zn     0.539670000000     0.064590000000     0.850540000000     0.48045    
Zn       Zn     0.506210000000     0.256340000000     0.849070000000     0.48045    
Zn       Zn     0.468570000000     0.449920000000     0.850110000000     0.48045    
Zn       Zn     0.039670000000     0.435410000000     0.350540000000     0.48045    
Zn       Zn     0.006210000000     0.243660000000     0.349070000000     0.48045    
Zn       Zn     0.968570000000     0.050080000000     0.350110000000     0.48045    
Zn       Zn     0.960330000000     0.564590000000     0.649460000000     0.48045    
Zn       Zn     0.993790000000     0.756340000000     0.650930000000     0.48045    
Zn       Zn     0.031430000000     0.949920000000     0.649890000000     0.48045    
Zn       Zn     0.460330000000     0.935410000000     0.149460000000     0.48045    
Zn       Zn     0.493790000000     0.743660000000     0.150930000000     0.48045    
Zn       Zn     0.531430000000     0.550080000000     0.149890000000     0.48045    
H        H      0.486000000000     0.943300000000     0.924900000000     0.0518515  
H        H      0.467200000000     0.815400000000     0.926900000000     0.0518515  
H        H      0.556000000000     0.810500000000     0.771100000000     0.0518515  
H        H      0.571800000000     0.937000000000     0.774500000000     0.0518515  
H        H      0.523900000000     0.571300000000     0.923900000000     0.0518515  
H        H      0.544300000000     0.698400000000     0.925400000000     0.0518515  
H        H      0.447300000000     0.706400000000     0.772400000000     0.0518515  
H        H      0.429000000000     0.578600000000     0.775100000000     0.0518515  
H        H      0.832800000000     0.093700000000     0.818600000000     0.0518515  
H        H      0.982900000000     0.138500000000     0.814600000000     0.0518515  
H        H      0.900200000000     0.331900000000     0.882400000000     0.0518515  
H        H      0.750100000000     0.287000000000     0.886300000000     0.0518515  
H        H      0.019300000000     0.379100000000     0.848100000000     0.0518515  
H        H      0.167300000000     0.424700000000     0.845100000000     0.0518515  
H        H      0.265600000000     0.216600000000     0.832500000000     0.0518515  
H        H      0.117600000000     0.169400000000     0.839800000000     0.0518515  
H        H      0.375000000000     0.026400000000     0.987700000000     0.0518515  
H        H      0.286000000000     0.026300000000     0.065500000000     0.0518515  
H        H      0.261600000000     0.250400000000     0.056300000000     0.0518515  
H        H      0.346000000000     0.249300000000     0.975800000000     0.0518515  
H        H      0.156600000000     0.035800000000     0.110000000000     0.0518515  
H        H      0.078400000000     0.030200000000     0.192000000000     0.0518515  
H        H      0.180800000000     0.230500000000     0.232500000000     0.0518515  
H        H      0.252400000000     0.239200000000     0.148900000000     0.0518515  
H        H      0.335800000000     0.044400000000     0.729800000000     0.0518515  
H        H      0.240500000000     0.044800000000     0.655000000000     0.0518515  
H        H      0.346000000000     0.241900000000     0.608900000000     0.0518515  
H        H      0.437800000000     0.244400000000     0.686200000000     0.0518515  
H        H      0.223100000000     0.026500000000     0.569400000000     0.0518515  
H        H      0.131200000000     0.020300000000     0.492900000000     0.0518515  
H        H      0.121900000000     0.244000000000     0.486400000000     0.0518515  
H        H      0.216600000000     0.250800000000     0.561600000000     0.0518515  
H        H      0.986000000000     0.556700000000     0.424900000000     0.0518515  
H        H      0.967200000000     0.684600000000     0.426900000000     0.0518515  
H        H      0.056000000000     0.689500000000     0.271100000000     0.0518515  
H        H      0.071800000000     0.563000000000     0.274500000000     0.0518515  
H        H      0.023900000000     0.928700000000     0.423900000000     0.0518515  
H        H      0.044300000000     0.801600000000     0.425400000000     0.0518515  
H        H      0.947300000000     0.793600000000     0.272400000000     0.0518515  
H        H      0.929000000000     0.921400000000     0.275100000000     0.0518515  
H        H      0.332800000000     0.406300000000     0.318600000000     0.0518515  
H        H      0.482900000000     0.361500000000     0.314600000000     0.0518515  
H        H      0.400200000000     0.168100000000     0.382400000000     0.0518515  
H        H      0.250100000000     0.213000000000     0.386300000000     0.0518515  
H        H      0.519300000000     0.120900000000     0.348100000000     0.0518515  
H        H      0.667300000000     0.075300000000     0.345100000000     0.0518515  
H        H      0.765600000000     0.283400000000     0.332500000000     0.0518515  
H        H      0.617600000000     0.330600000000     0.339800000000     0.0518515  
H        H      0.875000000000     0.473600000000     0.487700000000     0.0518515  
H        H      0.786000000000     0.473700000000     0.565500000000     0.0518515  
H        H      0.761600000000     0.249600000000     0.556300000000     0.0518515  
H        H      0.846000000000     0.250700000000     0.475800000000     0.0518515  
H        H      0.656600000000     0.464200000000     0.610000000000     0.0518515  
H        H      0.578400000000     0.469800000000     0.692000000000     0.0518515  
H        H      0.680800000000     0.269500000000     0.732500000000     0.0518515  
H        H      0.752400000000     0.260800000000     0.648900000000     0.0518515  
H        H      0.835800000000     0.455600000000     0.229800000000     0.0518515  
H        H      0.740500000000     0.455200000000     0.155000000000     0.0518515  
H        H      0.846000000000     0.258100000000     0.108900000000     0.0518515  
H        H      0.937800000000     0.255600000000     0.186200000000     0.0518515  
H        H      0.723100000000     0.473500000000     0.069400000000     0.0518515  
H        H      0.631200000000     0.479700000000     0.992900000000     0.0518515  
H        H      0.621900000000     0.256000000000     0.986400000000     0.0518515  
H        H      0.716600000000     0.249200000000     0.061600000000     0.0518515  
H        H      0.014000000000     0.443300000000     0.575100000000     0.0518515  
H        H      0.032800000000     0.315400000000     0.573100000000     0.0518515  
H        H      0.944000000000     0.310500000000     0.728900000000     0.0518515  
H        H      0.928200000000     0.437000000000     0.725500000000     0.0518515  
H        H      0.976100000000     0.071300000000     0.576100000000     0.0518515  
H        H      0.955700000000     0.198400000000     0.574600000000     0.0518515  
H        H      0.052700000000     0.206400000000     0.727600000000     0.0518515  
H        H      0.071000000000     0.078600000000     0.724900000000     0.0518515  
H        H      0.667200000000     0.593700000000     0.681400000000     0.0518515  
H        H      0.517100000000     0.638500000000     0.685400000000     0.0518515  
H        H      0.599800000000     0.831900000000     0.617600000000     0.0518515  
H        H      0.749900000000     0.787000000000     0.613700000000     0.0518515  
H        H      0.480700000000     0.879100000000     0.651900000000     0.0518515  
H        H      0.332700000000     0.924700000000     0.654900000000     0.0518515  
H        H      0.234400000000     0.716600000000     0.667500000000     0.0518515  
H        H      0.382400000000     0.669400000000     0.660200000000     0.0518515  
H        H      0.125000000000     0.526400000000     0.512300000000     0.0518515  
H        H      0.214000000000     0.526300000000     0.434500000000     0.0518515  
H        H      0.238400000000     0.750400000000     0.443700000000     0.0518515  
H        H      0.154000000000     0.749300000000     0.524200000000     0.0518515  
H        H      0.343400000000     0.535800000000     0.390000000000     0.0518515  
H        H      0.421600000000     0.530200000000     0.308000000000     0.0518515  
H        H      0.319200000000     0.730500000000     0.267500000000     0.0518515  
H        H      0.247600000000     0.739200000000     0.351100000000     0.0518515  
H        H      0.164200000000     0.544400000000     0.770200000000     0.0518515  
H        H      0.259500000000     0.544800000000     0.845000000000     0.0518515  
H        H      0.154000000000     0.741900000000     0.891100000000     0.0518515  
H        H      0.062200000000     0.744400000000     0.813800000000     0.0518515  
H        H      0.276900000000     0.526500000000     0.930600000000     0.0518515  
H        H      0.368800000000     0.520300000000     0.007100000000     0.0518515  
H        H      0.378100000000     0.744000000000     0.013600000000     0.0518515  
H        H      0.283400000000     0.750800000000     0.938400000000     0.0518515  
H        H      0.514000000000     0.056700000000     0.075100000000     0.0518515  
H        H      0.532800000000     0.184600000000     0.073100000000     0.0518515  
H        H      0.444000000000     0.189500000000     0.228900000000     0.0518515  
H        H      0.428200000000     0.063000000000     0.225500000000     0.0518515  
H        H      0.476100000000     0.428700000000     0.076100000000     0.0518515  
H        H      0.455700000000     0.301600000000     0.074600000000     0.0518515  
H        H      0.552700000000     0.293600000000     0.227600000000     0.0518515  
H        H      0.571000000000     0.421400000000     0.224900000000     0.0518515  
H        H      0.167200000000     0.906300000000     0.181400000000     0.0518515  
H        H      0.017100000000     0.861500000000     0.185400000000     0.0518515  
H        H      0.099800000000     0.668100000000     0.117600000000     0.0518515  
H        H      0.249900000000     0.713000000000     0.113700000000     0.0518515  
H        H      0.980700000000     0.620900000000     0.151900000000     0.0518515  
H        H      0.832700000000     0.575300000000     0.154900000000     0.0518515  
H        H      0.734400000000     0.783400000000     0.167500000000     0.0518515  
H        H      0.882400000000     0.830600000000     0.160200000000     0.0518515  
H        H      0.625000000000     0.973600000000     0.012300000000     0.0518515  
H        H      0.714000000000     0.973700000000     0.934500000000     0.0518515  
H        H      0.738400000000     0.749600000000     0.943700000000     0.0518515  
H        H      0.654000000000     0.750700000000     0.024200000000     0.0518515  
H        H      0.843400000000     0.964200000000     0.890000000000     0.0518515  
H        H      0.921600000000     0.969800000000     0.808000000000     0.0518515  
H        H      0.819200000000     0.769500000000     0.767500000000     0.0518515  
H        H      0.747600000000     0.760800000000     0.851100000000     0.0518515  
H        H      0.664200000000     0.955600000000     0.270200000000     0.0518515  
H        H      0.759500000000     0.955200000000     0.345000000000     0.0518515  
H        H      0.654000000000     0.758100000000     0.391100000000     0.0518515  
H        H      0.562200000000     0.755600000000     0.313800000000     0.0518515  
H        H      0.776900000000     0.973500000000     0.430600000000     0.0518515  
H        H      0.868800000000     0.979700000000     0.507100000000     0.0518515  
H        H      0.878100000000     0.756000000000     0.513600000000     0.0518515  
H        H      0.783400000000     0.749200000000     0.438400000000     0.0518515  
C        C      0.500800000000     0.915300000000     0.893680000000     0.0147946  
C        C      0.488700000000     0.839200000000     0.895120000000     0.0147946  
C        C      0.508900000000     0.798110000000     0.848990000000     0.0147946  
C        C      0.541200000000     0.836600000000     0.803220000000     0.0147946  
C        C      0.550900000000     0.911600000000     0.805700000000     0.0147946  
C        C      0.508300000000     0.599300000000     0.892750000000     0.0147946  
C        C      0.520400000000     0.675000000000     0.894050000000     0.0147946  
C        C      0.497300000000     0.716710000000     0.849100000000     0.0147946  
C        C      0.463200000000     0.679600000000     0.804040000000     0.0147946  
C        C      0.452900000000     0.603300000000     0.805860000000     0.0147946  
C        C      0.681300000000     0.157400000000     0.856530000000     0.0147946  
C        C      0.777000000000     0.186100000000     0.852530000000     0.0147946  
C        C      0.846300000000     0.142200000000     0.831310000000     0.0147946  
C        C      0.935800000000     0.169200000000     0.828660000000     0.0147946  
C        C      0.956900000000     0.240780000000     0.846480000000     0.0147946  
C        C      0.886800000000     0.283800000000     0.868870000000     0.0147946  
C        C      0.797300000000     0.256900000000     0.871500000000     0.0147946  
C        C      0.052600000000     0.269400000000     0.842850000000     0.0147946  
C        C      0.069300000000     0.345600000000     0.845300000000     0.0147946  
C        C      0.157200000000     0.372700000000     0.843710000000     0.0147946  
C        C      0.231200000000     0.325000000000     0.840140000000     0.0147946  
C        C      0.215400000000     0.249600000000     0.836850000000     0.0147946  
C        C      0.127200000000     0.221500000000     0.839840000000     0.0147946  
C        C      0.327400000000     0.353600000000     0.838780000000     0.0147946  
C        C      0.425900000000     0.137300000000     0.924540000000     0.0147946  
C        C      0.368400000000     0.138400000000     0.974500000000     0.0147946  
C        C      0.351100000000     0.071600000000     0.001360000000     0.0147946  
C        C      0.299100000000     0.071800000000     0.047840000000     0.0147946  
C        C      0.265400000000     0.138400000000     0.069370000000     0.0147946  
C        C      0.283800000000     0.204800000000     0.042230000000     0.0147946  
C        C      0.334700000000     0.204300000000     0.994500000000     0.0147946  
C        C      0.213900000000     0.137000000000     0.121280000000     0.0147946  
C        C      0.161100000000     0.075900000000     0.134690000000     0.0147946  
C        C      0.114700000000     0.072300000000     0.183540000000     0.0147946  
C        C      0.121700000000     0.130300000000     0.219590000000     0.0147946  
C        C      0.174700000000     0.191400000000     0.207100000000     0.0147946  
C        C      0.218700000000     0.195900000000     0.157890000000     0.0147946  
C        C      0.076300000000     0.124300000000     0.273680000000     0.0147946  
C        C      0.457000000000     0.141800000000     0.764540000000     0.0147946  
C        C      0.397600000000     0.143400000000     0.715740000000     0.0147946  
C        C      0.337900000000     0.085000000000     0.705430000000     0.0147946  
C        C      0.281800000000     0.084700000000     0.660630000000     0.0147946  
C        C      0.285800000000     0.142700000000     0.623680000000     0.0147946  
C        C      0.343800000000     0.201800000000     0.633640000000     0.0147946  
C        C      0.399200000000     0.203100000000     0.679510000000     0.0147946  
C        C      0.228100000000     0.139400000000     0.574100000000     0.0147946  
C        C      0.202600000000     0.070900000000     0.552720000000     0.0147946  
C        C      0.147400000000     0.067300000000     0.507260000000     0.0147946  
C        C      0.115800000000     0.130500000000     0.482780000000     0.0147946  
C        C      0.142400000000     0.199800000000     0.503350000000     0.0147946  
C        C      0.198300000000     0.203700000000     0.548230000000     0.0147946  
C        C      0.053100000000     0.127100000000     0.435390000000     0.0147946  
C        C      0.000800000000     0.584700000000     0.393680000000     0.0147946  
C        C      0.988700000000     0.660800000000     0.395120000000     0.0147946  
C        C      0.008900000000     0.701890000000     0.348990000000     0.0147946  
C        C      0.041200000000     0.663400000000     0.303220000000     0.0147946  
C        C      0.050900000000     0.588400000000     0.305700000000     0.0147946  
C        C      0.008300000000     0.900700000000     0.392750000000     0.0147946  
C        C      0.020400000000     0.825000000000     0.394050000000     0.0147946  
C        C      0.997300000000     0.783290000000     0.349100000000     0.0147946  
C        C      0.963200000000     0.820400000000     0.304040000000     0.0147946  
C        C      0.952900000000     0.896700000000     0.305860000000     0.0147946  
C        C      0.181300000000     0.342600000000     0.356530000000     0.0147946  
C        C      0.277000000000     0.313900000000     0.352530000000     0.0147946  
C        C      0.346300000000     0.357800000000     0.331310000000     0.0147946  
C        C      0.435800000000     0.330800000000     0.328660000000     0.0147946  
C        C      0.456900000000     0.259220000000     0.346480000000     0.0147946  
C        C      0.386800000000     0.216200000000     0.368870000000     0.0147946  
C        C      0.297300000000     0.243100000000     0.371500000000     0.0147946  
C        C      0.552600000000     0.230600000000     0.342850000000     0.0147946  
C        C      0.569300000000     0.154400000000     0.345300000000     0.0147946  
C        C      0.657200000000     0.127300000000     0.343710000000     0.0147946  
C        C      0.731200000000     0.175000000000     0.340140000000     0.0147946  
C        C      0.715400000000     0.250400000000     0.336850000000     0.0147946  
C        C      0.627200000000     0.278500000000     0.339840000000     0.0147946  
C        C      0.827400000000     0.146400000000     0.338780000000     0.0147946  
C        C      0.925900000000     0.362700000000     0.424540000000     0.0147946  
C        C      0.868400000000     0.361600000000     0.474500000000     0.0147946  
C        C      0.851100000000     0.428400000000     0.501360000000     0.0147946  
C        C      0.799100000000     0.428200000000     0.547840000000     0.0147946  
C        C      0.765400000000     0.361600000000     0.569370000000     0.0147946  
C        C      0.783800000000     0.295200000000     0.542230000000     0.0147946  
C        C      0.834700000000     0.295700000000     0.494500000000     0.0147946  
C        C      0.713900000000     0.363000000000     0.621280000000     0.0147946  
C        C      0.661100000000     0.424100000000     0.634690000000     0.0147946  
C        C      0.614700000000     0.427700000000     0.683540000000     0.0147946  
C        C      0.621700000000     0.369700000000     0.719590000000     0.0147946  
C        C      0.674700000000     0.308600000000     0.707100000000     0.0147946  
C        C      0.718700000000     0.304100000000     0.657890000000     0.0147946  
C        C      0.576300000000     0.375700000000     0.773680000000     0.0147946  
C        C      0.957000000000     0.358200000000     0.264540000000     0.0147946  
C        C      0.897600000000     0.356600000000     0.215740000000     0.0147946  
C        C      0.837900000000     0.415000000000     0.205430000000     0.0147946  
C        C      0.781800000000     0.415300000000     0.160630000000     0.0147946  
C        C      0.785800000000     0.357300000000     0.123680000000     0.0147946  
C        C      0.843800000000     0.298200000000     0.133640000000     0.0147946  
C        C      0.899200000000     0.296900000000     0.179510000000     0.0147946  
C        C      0.728100000000     0.360600000000     0.074100000000     0.0147946  
C        C      0.702600000000     0.429100000000     0.052720000000     0.0147946  
C        C      0.647400000000     0.432700000000     0.007260000000     0.0147946  
C        C      0.615800000000     0.369500000000     0.982780000000     0.0147946  
C        C      0.642400000000     0.300200000000     0.003350000000     0.0147946  
C        C      0.698300000000     0.296300000000     0.048230000000     0.0147946  
C        C      0.553100000000     0.372900000000     0.935390000000     0.0147946  
C        C      0.999200000000     0.415300000000     0.606320000000     0.0147946  
C        C      0.011300000000     0.339200000000     0.604880000000     0.0147946  
C        C      0.991100000000     0.298110000000     0.651010000000     0.0147946  
C        C      0.958800000000     0.336600000000     0.696780000000     0.0147946  
C        C      0.949100000000     0.411600000000     0.694300000000     0.0147946  
C        C      0.991700000000     0.099300000000     0.607250000000     0.0147946  
C        C      0.979600000000     0.175000000000     0.605950000000     0.0147946  
C        C      0.002700000000     0.216710000000     0.650900000000     0.0147946  
C        C      0.036800000000     0.179600000000     0.695960000000     0.0147946  
C        C      0.047100000000     0.103300000000     0.694140000000     0.0147946  
C        C      0.818700000000     0.657400000000     0.643470000000     0.0147946  
C        C      0.723000000000     0.686100000000     0.647470000000     0.0147946  
C        C      0.653700000000     0.642200000000     0.668690000000     0.0147946  
C        C      0.564200000000     0.669200000000     0.671340000000     0.0147946  
C        C      0.543100000000     0.740780000000     0.653520000000     0.0147946  
C        C      0.613200000000     0.783800000000     0.631130000000     0.0147946  
C        C      0.702700000000     0.756900000000     0.628500000000     0.0147946  
C        C      0.447400000000     0.769400000000     0.657150000000     0.0147946  
C        C      0.430700000000     0.845600000000     0.654700000000     0.0147946  
C        C      0.342800000000     0.872700000000     0.656290000000     0.0147946  
C        C      0.268800000000     0.825000000000     0.659860000000     0.0147946  
C        C      0.284600000000     0.749600000000     0.663150000000     0.0147946  
C        C      0.372800000000     0.721500000000     0.660160000000     0.0147946  
C        C      0.172600000000     0.853600000000     0.661220000000     0.0147946  
C        C      0.074100000000     0.637300000000     0.575460000000     0.0147946  
C        C      0.131600000000     0.638400000000     0.525500000000     0.0147946  
C        C      0.148900000000     0.571600000000     0.498640000000     0.0147946  
C        C      0.200900000000     0.571800000000     0.452160000000     0.0147946  
C        C      0.234600000000     0.638400000000     0.430630000000     0.0147946  
C        C      0.216200000000     0.704800000000     0.457770000000     0.0147946  
C        C      0.165300000000     0.704300000000     0.505500000000     0.0147946  
C        C      0.286100000000     0.637000000000     0.378720000000     0.0147946  
C        C      0.338900000000     0.575900000000     0.365310000000     0.0147946  
C        C      0.385300000000     0.572300000000     0.316460000000     0.0147946  
C        C      0.378300000000     0.630300000000     0.280410000000     0.0147946  
C        C      0.325300000000     0.691400000000     0.292900000000     0.0147946  
C        C      0.281300000000     0.695900000000     0.342110000000     0.0147946  
C        C      0.423700000000     0.624300000000     0.226320000000     0.0147946  
C        C      0.043000000000     0.641800000000     0.735460000000     0.0147946  
C        C      0.102400000000     0.643400000000     0.784260000000     0.0147946  
C        C      0.162100000000     0.585000000000     0.794570000000     0.0147946  
C        C      0.218200000000     0.584700000000     0.839370000000     0.0147946  
C        C      0.214200000000     0.642700000000     0.876320000000     0.0147946  
C        C      0.156200000000     0.701800000000     0.866360000000     0.0147946  
C        C      0.100800000000     0.703100000000     0.820490000000     0.0147946  
C        C      0.271900000000     0.639400000000     0.925900000000     0.0147946  
C        C      0.297400000000     0.570900000000     0.947280000000     0.0147946  
C        C      0.352600000000     0.567300000000     0.992740000000     0.0147946  
C        C      0.384200000000     0.630500000000     0.017220000000     0.0147946  
C        C      0.357600000000     0.699800000000     0.996650000000     0.0147946  
C        C      0.301700000000     0.703700000000     0.951770000000     0.0147946  
C        C      0.446900000000     0.627100000000     0.064610000000     0.0147946  
C        C      0.499200000000     0.084700000000     0.106320000000     0.0147946  
C        C      0.511300000000     0.160800000000     0.104880000000     0.0147946  
C        C      0.491100000000     0.201890000000     0.151010000000     0.0147946  
C        C      0.458800000000     0.163400000000     0.196780000000     0.0147946  
C        C      0.449100000000     0.088400000000     0.194300000000     0.0147946  
C        C      0.491700000000     0.400700000000     0.107250000000     0.0147946  
C        C      0.479600000000     0.325000000000     0.105950000000     0.0147946  
C        C      0.502700000000     0.283290000000     0.150900000000     0.0147946  
C        C      0.536800000000     0.320400000000     0.195960000000     0.0147946  
C        C      0.547100000000     0.396700000000     0.194140000000     0.0147946  
C        C      0.318700000000     0.842600000000     0.143470000000     0.0147946  
C        C      0.223000000000     0.813900000000     0.147470000000     0.0147946  
C        C      0.153700000000     0.857800000000     0.168690000000     0.0147946  
C        C      0.064200000000     0.830800000000     0.171340000000     0.0147946  
C        C      0.043100000000     0.759220000000     0.153520000000     0.0147946  
C        C      0.113200000000     0.716200000000     0.131130000000     0.0147946  
C        C      0.202700000000     0.743100000000     0.128500000000     0.0147946  
C        C      0.947400000000     0.730600000000     0.157150000000     0.0147946  
C        C      0.930700000000     0.654400000000     0.154700000000     0.0147946  
C        C      0.842800000000     0.627300000000     0.156290000000     0.0147946  
C        C      0.768800000000     0.675000000000     0.159860000000     0.0147946  
C        C      0.784600000000     0.750400000000     0.163150000000     0.0147946  
C        C      0.872800000000     0.778500000000     0.160160000000     0.0147946  
C        C      0.672600000000     0.646400000000     0.161220000000     0.0147946  
C        C      0.574100000000     0.862700000000     0.075460000000     0.0147946  
C        C      0.631600000000     0.861600000000     0.025500000000     0.0147946  
C        C      0.648900000000     0.928400000000     0.998640000000     0.0147946  
C        C      0.700900000000     0.928200000000     0.952160000000     0.0147946  
C        C      0.734600000000     0.861600000000     0.930630000000     0.0147946  
C        C      0.716200000000     0.795200000000     0.957770000000     0.0147946  
C        C      0.665300000000     0.795700000000     0.005500000000     0.0147946  
C        C      0.786100000000     0.863000000000     0.878720000000     0.0147946  
C        C      0.838900000000     0.924100000000     0.865310000000     0.0147946  
C        C      0.885300000000     0.927700000000     0.816460000000     0.0147946  
C        C      0.878300000000     0.869700000000     0.780410000000     0.0147946  
C        C      0.825300000000     0.808600000000     0.792900000000     0.0147946  
C        C      0.781300000000     0.804100000000     0.842110000000     0.0147946  
C        C      0.923700000000     0.875700000000     0.726320000000     0.0147946  
C        C      0.543000000000     0.858200000000     0.235460000000     0.0147946  
C        C      0.602400000000     0.856600000000     0.284260000000     0.0147946  
C        C      0.662100000000     0.915000000000     0.294570000000     0.0147946  
C        C      0.718200000000     0.915300000000     0.339370000000     0.0147946  
C        C      0.714200000000     0.857300000000     0.376320000000     0.0147946  
C        C      0.656200000000     0.798200000000     0.366360000000     0.0147946  
C        C      0.600800000000     0.796900000000     0.320490000000     0.0147946  
C        C      0.771900000000     0.860600000000     0.425900000000     0.0147946  
C        C      0.797400000000     0.929100000000     0.447280000000     0.0147946  
C        C      0.852600000000     0.932700000000     0.492740000000     0.0147946  
C        C      0.884200000000     0.869500000000     0.517220000000     0.0147946  
C        C      0.857600000000     0.800200000000     0.496650000000     0.0147946  
C        C      0.801700000000     0.796300000000     0.451770000000     0.0147946  
C        C      0.946900000000     0.872900000000     0.564610000000     0.0147946  
N        N      0.532300000000     0.951340000000     0.850270000000    -0.159941   
N        N      0.475300000000     0.563030000000     0.849280000000    -0.159941   
N        N      0.032300000000     0.548660000000     0.350270000000    -0.159941   
N        N      0.975300000000     0.936970000000     0.349280000000    -0.159941   
N        N      0.967700000000     0.451340000000     0.649730000000    -0.159941   
N        N      0.024700000000     0.063030000000     0.650720000000    -0.159941   
N        N      0.467700000000     0.048660000000     0.149730000000    -0.159941   
N        N      0.524700000000     0.436970000000     0.150720000000    -0.159941   
O        O      0.667710000000     0.091230000000     0.841220000000    -0.295836   
O        O      0.620570000000     0.197750000000     0.876750000000    -0.295836   
O        O      0.340440000000     0.420970000000     0.853070000000    -0.295836   
O        O      0.389740000000     0.312510000000     0.821620000000    -0.295836   
O        O      0.478800000000     0.081580000000     0.918950000000    -0.295836   
O        O      0.416350000000     0.188410000000     0.890630000000    -0.295836   
O        O      0.025100000000     0.068130000000     0.280620000000    -0.295836   
O        O      0.093520000000     0.171620000000     0.309430000000    -0.295836   
O        O      0.461700000000     0.080470000000     0.788390000000    -0.295836   
O        O      0.501430000000     0.198940000000     0.776770000000    -0.295836   
O        O      0.044700000000     0.063940000000     0.413550000000    -0.295836   
O        O      0.012600000000     0.184380000000     0.420670000000    -0.295836   
O        O      0.167710000000     0.408770000000     0.341220000000    -0.295836   
O        O      0.120570000000     0.302250000000     0.376750000000    -0.295836   
O        O      0.840440000000     0.079030000000     0.353070000000    -0.295836   
O        O      0.889740000000     0.187490000000     0.321620000000    -0.295836   
O        O      0.978800000000     0.418420000000     0.418950000000    -0.295836   
O        O      0.916350000000     0.311590000000     0.390630000000    -0.295836   
O        O      0.525100000000     0.431870000000     0.780620000000    -0.295836   
O        O      0.593520000000     0.328380000000     0.809430000000    -0.295836   
O        O      0.961700000000     0.419530000000     0.288390000000    -0.295836   
O        O      0.001430000000     0.301060000000     0.276770000000    -0.295836   
O        O      0.544700000000     0.436060000000     0.913550000000    -0.295836   
O        O      0.512600000000     0.315620000000     0.920670000000    -0.295836   
O        O      0.832290000000     0.591230000000     0.658780000000    -0.295836   
O        O      0.879430000000     0.697750000000     0.623250000000    -0.295836   
O        O      0.159560000000     0.920970000000     0.646930000000    -0.295836   
O        O      0.110260000000     0.812510000000     0.678380000000    -0.295836   
O        O      0.021200000000     0.581580000000     0.581050000000    -0.295836   
O        O      0.083650000000     0.688410000000     0.609370000000    -0.295836   
O        O      0.474900000000     0.568130000000     0.219380000000    -0.295836   
O        O      0.406480000000     0.671620000000     0.190570000000    -0.295836   
O        O      0.038300000000     0.580470000000     0.711610000000    -0.295836   
O        O      0.998570000000     0.698940000000     0.723230000000    -0.295836   
O        O      0.455300000000     0.563940000000     0.086450000000    -0.295836   
O        O      0.487400000000     0.684380000000     0.079330000000    -0.295836   
O        O      0.332290000000     0.908770000000     0.158780000000    -0.295836   
O        O      0.379430000000     0.802250000000     0.123250000000    -0.295836   
O        O      0.659560000000     0.579030000000     0.146930000000    -0.295836   
O        O      0.610260000000     0.687490000000     0.178380000000    -0.295836   
O        O      0.521200000000     0.918420000000     0.081050000000    -0.295836   
O        O      0.583650000000     0.811590000000     0.109370000000    -0.295836   
O        O      0.974900000000     0.931870000000     0.719380000000    -0.295836   
O        O      0.906480000000     0.828380000000     0.690570000000    -0.295836   
O        O      0.538300000000     0.919530000000     0.211610000000    -0.295836   
O        O      0.498570000000     0.801060000000     0.223230000000    -0.295836   
O        O      0.955300000000     0.936060000000     0.586450000000    -0.295836   
O        O      0.987400000000     0.815620000000     0.579330000000    -0.295836   


