data_HELCUY_original

_audit_creation_method RASPA-1.0
_audit_creation_date 2022-1-31
_audit_author_name 'Felipe Lopes de Oliveira <felipe.lopes.oliveira@ibm.com>'

_cell_length_a    5.5807
_cell_length_b    13.793
_cell_length_c    24.064
_cell_angle_alpha 90
_cell_angle_beta  95.91
_cell_angle_gamma 90
_cell_volume      1842.47

_symmetry_cell_setting          triclinic
_symmetry_space_group_name_Hall 'P 1'
_symmetry_space_group_name_H-M  'P 1'
_symmetry_Int_Tables_number     1

_symmetry_equiv_pos_as_xyz 'x,y,z'

loop_
_atom_site_label
_atom_site_type_symbol
_atom_site_fract_x
_atom_site_fract_y
_atom_site_fract_z
_atom_site_charge
Zn       Zn     0.998290000000     0.576220000000     0.550170000000     0.460827   
Zn       Zn     0.691060000000     0.752770000000     0.494110000000     0.460827   
Zn       Zn     0.001710000000     0.076220000000     0.949830000000     0.460827   
Zn       Zn     0.308940000000     0.252770000000     0.005890000000     0.460827   
Zn       Zn     0.001710000000     0.423780000000     0.449830000000     0.460827   
Zn       Zn     0.308940000000     0.247230000000     0.505890000000     0.460827   
Zn       Zn     0.998290000000     0.923780000000     0.050170000000     0.460827   
Zn       Zn     0.691060000000     0.747230000000     0.994110000000     0.460827   
Zn       Zn     0.500000000000     0.500000000000     0.500000000000     0.460827   
Zn       Zn     0.500000000000     0.000000000000     0.000000000000     0.460827   
H        H      0.719600000000     0.513200000000     0.688100000000     0.102854   
H        H      0.647800000000     0.474900000000     0.745500000000     0.102854   
H        H      0.501700000000     0.367700000000     0.674600000000     0.102854   
H        H      0.282900000000     0.414500000000     0.700900000000     0.102854   
H        H      0.469000000000     0.890200000000     0.677900000000     0.102854   
H        H      0.522700000000     0.821100000000     0.629100000000     0.102854   
H        H      0.229900000000     0.930100000000     0.596600000000     0.102854   
H        H      0.070500000000     0.901100000000     0.643700000000     0.102854   
H        H      0.834000000000     0.717300000000     0.779800000000     0.102854   
H        H      0.923600000000     0.617600000000     0.805500000000     0.102854   
H        H      0.206500000000     0.703200000000     0.867800000000     0.102854   
H        H      0.089400000000     0.800500000000     0.844600000000     0.102854   
H        H      0.280400000000     0.013200000000     0.811900000000     0.102854   
H        H      0.352200000000     0.974900000000     0.754500000000     0.102854   
H        H      0.498300000000     0.867700000000     0.825400000000     0.102854   
H        H      0.717100000000     0.914500000000     0.799100000000     0.102854   
H        H      0.531000000000     0.390200000000     0.822100000000     0.102854   
H        H      0.477300000000     0.321100000000     0.870900000000     0.102854   
H        H      0.770100000000     0.430100000000     0.903400000000     0.102854   
H        H      0.929500000000     0.401100000000     0.856300000000     0.102854   
H        H      0.166000000000     0.217300000000     0.720200000000     0.102854   
H        H      0.076400000000     0.117600000000     0.694500000000     0.102854   
H        H      0.793500000000     0.203200000000     0.632200000000     0.102854   
H        H      0.910600000000     0.300500000000     0.655400000000     0.102854   
H        H      0.280400000000     0.486800000000     0.311900000000     0.102854   
H        H      0.352200000000     0.525100000000     0.254500000000     0.102854   
H        H      0.498300000000     0.632300000000     0.325400000000     0.102854   
H        H      0.717100000000     0.585500000000     0.299100000000     0.102854   
H        H      0.531000000000     0.109800000000     0.322100000000     0.102854   
H        H      0.477300000000     0.178900000000     0.370900000000     0.102854   
H        H      0.770100000000     0.069900000000     0.403400000000     0.102854   
H        H      0.929500000000     0.098900000000     0.356300000000     0.102854   
H        H      0.166000000000     0.282700000000     0.220200000000     0.102854   
H        H      0.076400000000     0.382400000000     0.194500000000     0.102854   
H        H      0.793500000000     0.296800000000     0.132200000000     0.102854   
H        H      0.910600000000     0.199500000000     0.155400000000     0.102854   
H        H      0.719600000000     0.986800000000     0.188100000000     0.102854   
H        H      0.647800000000     0.025100000000     0.245500000000     0.102854   
H        H      0.501700000000     0.132300000000     0.174600000000     0.102854   
H        H      0.282900000000     0.085500000000     0.200900000000     0.102854   
H        H      0.469000000000     0.609800000000     0.177900000000     0.102854   
H        H      0.522700000000     0.678900000000     0.129100000000     0.102854   
H        H      0.229900000000     0.569900000000     0.096600000000     0.102854   
H        H      0.070500000000     0.598900000000     0.143700000000     0.102854   
H        H      0.834000000000     0.782700000000     0.279800000000     0.102854   
H        H      0.923600000000     0.882400000000     0.305500000000     0.102854   
H        H      0.206500000000     0.796800000000     0.367800000000     0.102854   
H        H      0.089400000000     0.699500000000     0.344600000000     0.102854   
C        C      0.491900000000     0.670100000000     0.681610000000     0.110361   
C        C      0.191200000000     0.761000000000     0.726900000000     0.110361   
C        C      0.300100000000     0.596700000000     0.758450000000     0.110361   
C        C      0.584800000000     0.501300000000     0.709600000000     0.110361   
C        C      0.415800000000     0.427900000000     0.679030000000     0.110361   
C        C      0.319000000000     0.466200000000     0.622200000000     0.110361   
C        C      0.402600000000     0.838300000000     0.653800000000     0.110361   
C        C      0.181800000000     0.876100000000     0.618800000000     0.110361   
C        C      0.049600000000     0.803200000000     0.580000000000     0.110361   
C        C      0.973200000000     0.683200000000     0.797700000000     0.110361   
C        C      0.870600000000     0.725300000000     0.892700000000     0.110361   
C        C      0.057500000000     0.732800000000     0.851700000000     0.110361   
C        C      0.508100000000     0.170100000000     0.818390000000     0.110361   
C        C      0.808800000000     0.261000000000     0.773100000000     0.110361   
C        C      0.699900000000     0.096700000000     0.741550000000     0.110361   
C        C      0.415200000000     0.001300000000     0.790400000000     0.110361   
C        C      0.584200000000     0.927900000000     0.820970000000     0.110361   
C        C      0.681000000000     0.966200000000     0.877800000000     0.110361   
C        C      0.597400000000     0.338300000000     0.846200000000     0.110361   
C        C      0.818200000000     0.376100000000     0.881200000000     0.110361   
C        C      0.950400000000     0.303200000000     0.920000000000     0.110361   
C        C      0.026800000000     0.183200000000     0.702300000000     0.110361   
C        C      0.129400000000     0.225300000000     0.607300000000     0.110361   
C        C      0.942500000000     0.232800000000     0.648300000000     0.110361   
C        C      0.508100000000     0.329900000000     0.318390000000     0.110361   
C        C      0.808800000000     0.239000000000     0.273100000000     0.110361   
C        C      0.699900000000     0.403300000000     0.241550000000     0.110361   
C        C      0.415200000000     0.498700000000     0.290400000000     0.110361   
C        C      0.584200000000     0.572100000000     0.320970000000     0.110361   
C        C      0.681000000000     0.533800000000     0.377800000000     0.110361   
C        C      0.597400000000     0.161700000000     0.346200000000     0.110361   
C        C      0.818200000000     0.123900000000     0.381200000000     0.110361   
C        C      0.950400000000     0.196800000000     0.420000000000     0.110361   
C        C      0.026800000000     0.316800000000     0.202300000000     0.110361   
C        C      0.129400000000     0.274700000000     0.107300000000     0.110361   
C        C      0.942500000000     0.267200000000     0.148300000000     0.110361   
C        C      0.491900000000     0.829900000000     0.181610000000     0.110361   
C        C      0.191200000000     0.739000000000     0.226900000000     0.110361   
C        C      0.300100000000     0.903300000000     0.258450000000     0.110361   
C        C      0.584800000000     0.998700000000     0.209600000000     0.110361   
C        C      0.415800000000     0.072100000000     0.179030000000     0.110361   
C        C      0.319000000000     0.033800000000     0.122200000000     0.110361   
C        C      0.402600000000     0.661700000000     0.153800000000     0.110361   
C        C      0.181800000000     0.623900000000     0.118800000000     0.110361   
C        C      0.049600000000     0.696800000000     0.080000000000     0.110361   
C        C      0.973200000000     0.816800000000     0.297700000000     0.110361   
C        C      0.870600000000     0.774700000000     0.392700000000     0.110361   
C        C      0.057500000000     0.767200000000     0.351700000000     0.110361   
N        N      0.360300000000     0.753300000000     0.688900000000    -0.211055   
N        N      0.161500000000     0.679700000000     0.759050000000    -0.211055   
N        N      0.460200000000     0.594200000000     0.718360000000    -0.211055   
N        N      0.639700000000     0.253300000000     0.811100000000    -0.211055   
N        N      0.838500000000     0.179700000000     0.740950000000    -0.211055   
N        N      0.539800000000     0.094200000000     0.781640000000    -0.211055   
N        N      0.639700000000     0.246700000000     0.311100000000    -0.211055   
N        N      0.838500000000     0.320300000000     0.240950000000    -0.211055   
N        N      0.539800000000     0.405800000000     0.281640000000    -0.211055   
N        N      0.360300000000     0.746700000000     0.188900000000    -0.211055   
N        N      0.161500000000     0.820300000000     0.259050000000    -0.211055   
N        N      0.460200000000     0.905800000000     0.218360000000    -0.211055   
O        O      0.284800000000     0.529900000000     0.790950000000    -0.27977    
O        O      0.637600000000     0.664300000000     0.647420000000    -0.27977    
O        O      0.079300000000     0.834500000000     0.732850000000    -0.27977    
O        O      0.132600000000     0.720100000000     0.574810000000    -0.27977    
O        O      0.854900000000     0.835300000000     0.554010000000    -0.27977    
O        O      0.132000000000     0.519400000000     0.621050000000    -0.27977    
O        O      0.830200000000     0.440300000000     0.516300000000    -0.27977    
O        O      0.661600000000     0.628700000000     0.533930000000    -0.27977    
O        O      0.941000000000     0.756200000000     0.942840000000    -0.27977    
O        O      0.429900000000     0.446600000000     0.581190000000    -0.27977    
O        O      0.669000000000     0.694200000000     0.879280000000    -0.27977    
O        O      0.715200000000     0.029900000000     0.709050000000    -0.27977    
O        O      0.362400000000     0.164300000000     0.852580000000    -0.27977    
O        O      0.920700000000     0.334500000000     0.767150000000    -0.27977    
O        O      0.867400000000     0.220100000000     0.925190000000    -0.27977    
O        O      0.145100000000     0.335300000000     0.945990000000    -0.27977    
O        O      0.868000000000     0.019400000000     0.878950000000    -0.27977    
O        O      0.169800000000     0.940300000000     0.983700000000    -0.27977    
O        O      0.338400000000     0.128700000000     0.966070000000    -0.27977    
O        O      0.059000000000     0.256200000000     0.557160000000    -0.27977    
O        O      0.570100000000     0.946600000000     0.918810000000    -0.27977    
O        O      0.331000000000     0.194200000000     0.620720000000    -0.27977    
O        O      0.715200000000     0.470100000000     0.209050000000    -0.27977    
O        O      0.362400000000     0.335700000000     0.352580000000    -0.27977    
O        O      0.920700000000     0.165500000000     0.267150000000    -0.27977    
O        O      0.867400000000     0.279900000000     0.425190000000    -0.27977    
O        O      0.145100000000     0.164700000000     0.445990000000    -0.27977    
O        O      0.868000000000     0.480600000000     0.378950000000    -0.27977    
O        O      0.169800000000     0.559700000000     0.483700000000    -0.27977    
O        O      0.338400000000     0.371300000000     0.466070000000    -0.27977    
O        O      0.059000000000     0.243800000000     0.057160000000    -0.27977    
O        O      0.570100000000     0.553400000000     0.418810000000    -0.27977    
O        O      0.331000000000     0.305800000000     0.120720000000    -0.27977    
O        O      0.284800000000     0.970100000000     0.290950000000    -0.27977    
O        O      0.637600000000     0.835700000000     0.147420000000    -0.27977    
O        O      0.079300000000     0.665500000000     0.232850000000    -0.27977    
O        O      0.132600000000     0.779900000000     0.074810000000    -0.27977    
O        O      0.854900000000     0.664700000000     0.054010000000    -0.27977    
O        O      0.132000000000     0.980600000000     0.121050000000    -0.27977    
O        O      0.830200000000     0.059700000000     0.016300000000    -0.27977    
O        O      0.661600000000     0.871300000000     0.033930000000    -0.27977    
O        O      0.941000000000     0.743800000000     0.442840000000    -0.27977    
O        O      0.429900000000     0.053400000000     0.081190000000    -0.27977    
O        O      0.669000000000     0.805800000000     0.379280000000    -0.27977    


