data_HESVOR_original

_audit_creation_method RASPA-1.0
_audit_creation_date 2022-1-28
_audit_author_name 'Felipe Lopes de Oliveira <felipe.lopes.oliveira@ibm.com>'

_cell_length_a    7.0649
_cell_length_b    7.0649
_cell_length_c    19.775
_cell_angle_alpha 90
_cell_angle_beta  90
_cell_angle_gamma 90
_cell_volume      987.026

_symmetry_cell_setting          triclinic
_symmetry_space_group_name_Hall 'P 1'
_symmetry_space_group_name_H-M  'P 1'
_symmetry_Int_Tables_number     1

_symmetry_equiv_pos_as_xyz 'x,y,z'

loop_
_atom_site_label
_atom_site_type_symbol
_atom_site_fract_x
_atom_site_fract_y
_atom_site_fract_z
_atom_site_charge
Zn       Zn     0.000000000000     0.000000000000     0.721540000000     0.482625   
Zn       Zn     0.500000000000     0.500000000000     0.221540000000     0.482625   
Zn       Zn     0.500000000000     0.500000000000     0.778460000000     0.482625   
Zn       Zn     0.000000000000     0.000000000000     0.278460000000     0.482625   
H        H      0.799800000000     0.799800000000     0.949000000000     0.0834784  
H        H      0.200200000000     0.200200000000     0.949000000000     0.0834784  
H        H      0.700200000000     0.299800000000     0.449000000000     0.0834784  
H        H      0.299800000000     0.700200000000     0.449000000000     0.0834784  
H        H      0.700200000000     0.299800000000     0.551000000000     0.0834784  
H        H      0.299800000000     0.700200000000     0.551000000000     0.0834784  
H        H      0.799800000000     0.799800000000     0.051000000000     0.0834784  
H        H      0.200200000000     0.200200000000     0.051000000000     0.0834784  
C        C      0.000000000000     0.000000000000     0.962400000000     0.0794834  
C        C      0.500000000000     0.500000000000     0.462400000000     0.0794834  
C        C      0.500000000000     0.500000000000     0.537600000000     0.0794834  
C        C      0.000000000000     0.000000000000     0.037600000000     0.0794834  
C        C      0.881600000000     0.881600000000     0.926500000000     0.0794834  
C        C      0.886700000000     0.886700000000     0.856000000000     0.0794834  
C        C      0.764100000000     0.764100000000     0.811100000000     0.0794834  
C        C      0.118400000000     0.118400000000     0.926500000000     0.0794834  
C        C      0.113300000000     0.113300000000     0.856000000000     0.0794834  
C        C      0.235900000000     0.235900000000     0.811100000000     0.0794834  
C        C      0.618400000000     0.381600000000     0.426500000000     0.0794834  
C        C      0.613300000000     0.386700000000     0.356000000000     0.0794834  
C        C      0.735900000000     0.264100000000     0.311100000000     0.0794834  
C        C      0.381600000000     0.618400000000     0.426500000000     0.0794834  
C        C      0.386700000000     0.613300000000     0.356000000000     0.0794834  
C        C      0.264100000000     0.735900000000     0.311100000000     0.0794834  
C        C      0.618400000000     0.381600000000     0.573500000000     0.0794834  
C        C      0.613300000000     0.386700000000     0.644000000000     0.0794834  
C        C      0.735900000000     0.264100000000     0.688900000000     0.0794834  
C        C      0.381600000000     0.618400000000     0.573500000000     0.0794834  
C        C      0.386700000000     0.613300000000     0.644000000000     0.0794834  
C        C      0.264100000000     0.735900000000     0.688900000000     0.0794834  
C        C      0.881600000000     0.881600000000     0.073500000000     0.0794834  
C        C      0.886700000000     0.886700000000     0.144000000000     0.0794834  
C        C      0.764100000000     0.764100000000     0.188900000000     0.0794834  
C        C      0.118400000000     0.118400000000     0.073500000000     0.0794834  
C        C      0.113300000000     0.113300000000     0.144000000000     0.0794834  
C        C      0.235900000000     0.235900000000     0.188900000000     0.0794834  
N        N      0.000000000000     0.000000000000     0.823600000000    -0.137604   
N        N      0.500000000000     0.500000000000     0.323600000000    -0.137604   
N        N      0.500000000000     0.500000000000     0.676400000000    -0.137604   
N        N      0.000000000000     0.000000000000     0.176400000000    -0.137604   
O        O      0.652800000000     0.652800000000     0.839400000000    -0.26709    
O        O      0.784900000000     0.784900000000     0.749300000000    -0.26709    
O        O      0.347200000000     0.347200000000     0.839400000000    -0.26709    
O        O      0.215100000000     0.215100000000     0.749300000000    -0.26709    
O        O      0.847200000000     0.152800000000     0.339400000000    -0.26709    
O        O      0.715100000000     0.284900000000     0.249300000000    -0.26709    
O        O      0.152800000000     0.847200000000     0.339400000000    -0.26709    
O        O      0.284900000000     0.715100000000     0.249300000000    -0.26709    
O        O      0.847200000000     0.152800000000     0.660600000000    -0.26709    
O        O      0.715100000000     0.284900000000     0.750700000000    -0.26709    
O        O      0.152800000000     0.847200000000     0.660600000000    -0.26709    
O        O      0.284900000000     0.715100000000     0.750700000000    -0.26709    
O        O      0.652800000000     0.652800000000     0.160600000000    -0.26709    
O        O      0.784900000000     0.784900000000     0.250700000000    -0.26709    
O        O      0.347200000000     0.347200000000     0.160600000000    -0.26709    
O        O      0.215100000000     0.215100000000     0.250700000000    -0.26709    


