data_HEZKIH_original

_audit_creation_method RASPA-1.0
_audit_creation_date 2022-1-31
_audit_author_name 'Felipe Lopes de Oliveira <felipe.lopes.oliveira@ibm.com>'

_cell_length_a    13.0757
_cell_length_b    14.1157
_cell_length_c    16.6631
_cell_angle_alpha 66.602
_cell_angle_beta  87.138
_cell_angle_gamma 89.757
_cell_volume      2818.72

_symmetry_cell_setting          triclinic
_symmetry_space_group_name_Hall 'P 1'
_symmetry_space_group_name_H-M  'P 1'
_symmetry_Int_Tables_number     1

_symmetry_equiv_pos_as_xyz 'x,y,z'

loop_
_atom_site_label
_atom_site_type_symbol
_atom_site_fract_x
_atom_site_fract_y
_atom_site_fract_z
_atom_site_charge
Zn       Zn     0.235220000000     0.833700000000     0.417930000000     0.434985   
Zn       Zn     0.902830000000     0.461070000000     0.281740000000     0.434985   
Zn       Zn     0.747080000000     0.589920000000     0.128950000000     0.434985   
Zn       Zn     0.408180000000     0.959170000000     0.257230000000     0.434985   
Zn       Zn     0.764780000000     0.166300000000     0.582070000000     0.434985   
Zn       Zn     0.097170000000     0.538930000000     0.718260000000     0.434985   
Zn       Zn     0.252920000000     0.410080000000     0.871050000000     0.434985   
Zn       Zn     0.591820000000     0.040830000000     0.742770000000     0.434985   
H        H      0.087200000000     0.731100000000     0.245500000000     0.0720289  
H        H      0.986900000000     0.817500000000     0.000300000000     0.0720289  
H        H      0.221900000000     0.974600000000     0.044600000000     0.0720289  
H        H      0.170500000000     0.097000000000     0.914700000000     0.0720289  
H        H      0.250500000000     0.023800000000     0.891100000000     0.0720289  
H        H      0.088900000000     0.118700000000     0.776400000000     0.0720289  
H        H      0.171100000000     0.227800000000     0.262900000000     0.0720289  
H        H      0.120900000000     0.276600000000     0.486300000000     0.0720289  
H        H      0.310300000000     0.049100000000     0.483100000000     0.0720289  
H        H      0.227500000000     0.257800000000     0.607500000000     0.0720289  
H        H      0.124700000000     0.188400000000     0.627400000000     0.0720289  
H        H      0.297200000000     0.114100000000     0.736100000000     0.0720289  
H        H      0.579300000000     0.683000000000     0.302600000000     0.0720289  
H        H      0.725300000000     0.473300000000     0.506500000000     0.0720289  
H        H      0.490800000000     0.637400000000     0.552200000000     0.0720289  
H        H      0.697700000000     0.376900000000     0.651700000000     0.0720289  
H        H      0.769000000000     0.475500000000     0.636800000000     0.0720289  
H        H      0.647000000000     0.367800000000     0.797400000000     0.0720289  
H        H      0.828500000000     0.481500000000     0.760500000000     0.0720289  
H        H      0.766700000000     0.472800000000     0.907000000000     0.0720289  
H        H      0.855600000000     0.393000000000     0.909800000000     0.0720289  
H        H      0.805000000000     0.401100000000     0.046900000000     0.0720289  
H        H      0.681100000000     0.188300000000     0.275600000000     0.0720289  
H        H      0.617000000000     0.174500000000     0.045200000000     0.0720289  
H        H      0.912800000000     0.268900000000     0.754500000000     0.0720289  
H        H      0.013100000000     0.182500000000     0.999700000000     0.0720289  
H        H      0.778100000000     0.025400000000     0.955400000000     0.0720289  
H        H      0.829500000000     0.903000000000     0.085300000000     0.0720289  
H        H      0.749500000000     0.976200000000     0.108900000000     0.0720289  
H        H      0.911100000000     0.881300000000     0.223600000000     0.0720289  
H        H      0.828900000000     0.772200000000     0.737100000000     0.0720289  
H        H      0.879100000000     0.723400000000     0.513700000000     0.0720289  
H        H      0.689700000000     0.950900000000     0.516900000000     0.0720289  
H        H      0.772500000000     0.742200000000     0.392500000000     0.0720289  
H        H      0.875300000000     0.811600000000     0.372600000000     0.0720289  
H        H      0.702800000000     0.885900000000     0.263900000000     0.0720289  
H        H      0.420700000000     0.317000000000     0.697400000000     0.0720289  
H        H      0.274700000000     0.526700000000     0.493500000000     0.0720289  
H        H      0.509200000000     0.362600000000     0.447800000000     0.0720289  
H        H      0.302300000000     0.623100000000     0.348300000000     0.0720289  
H        H      0.231000000000     0.524500000000     0.363200000000     0.0720289  
H        H      0.353000000000     0.632200000000     0.202600000000     0.0720289  
H        H      0.171500000000     0.518500000000     0.239500000000     0.0720289  
H        H      0.233300000000     0.527200000000     0.093000000000     0.0720289  
H        H      0.144400000000     0.607000000000     0.090200000000     0.0720289  
H        H      0.195000000000     0.598900000000     0.953100000000     0.0720289  
H        H      0.318900000000     0.811700000000     0.724400000000     0.0720289  
H        H      0.383000000000     0.825500000000     0.954800000000     0.0720289  
C        C      0.231600000000     0.874300000000     0.217000000000     0.0433896  
C        C      0.951200000000     0.671600000000     0.160000000000     0.0433896  
C        C      0.162200000000     0.856400000000     0.154200000000     0.0433896  
C        C      0.091500000000     0.775900000000     0.185200000000     0.0433896  
C        C      0.026200000000     0.761100000000     0.127200000000     0.0433896  
C        C      0.032400000000     0.826800000000     0.039400000000     0.0433896  
C        C      0.105600000000     0.906800000000     0.008300000000     0.0433896  
C        C      0.171200000000     0.921100000000     0.065600000000     0.0433896  
C        C      0.179500000000     0.049400000000     0.884500000000     0.0433896  
C        C      0.158200000000     0.102900000000     0.790300000000     0.0433896  
C        C      0.300500000000     0.075000000000     0.316000000000     0.0433896  
C        C      0.054900000000     0.341400000000     0.324300000000     0.0433896  
C        C      0.247700000000     0.130000000000     0.366700000000     0.0433896  
C        C      0.182200000000     0.209600000000     0.323000000000     0.0433896  
C        C      0.132800000000     0.262500000000     0.368600000000     0.0433896  
C        C      0.152900000000     0.239200000000     0.455900000000     0.0433896  
C        C      0.220800000000     0.160000000000     0.498000000000     0.0433896  
C        C      0.266400000000     0.104500000000     0.453700000000     0.0433896  
C        C      0.200100000000     0.186100000000     0.631400000000     0.0433896  
C        C      0.227600000000     0.130400000000     0.724100000000     0.0433896  
C        C      0.446300000000     0.755700000000     0.388800000000     0.0433896  
C        C      0.725800000000     0.544300000000     0.331900000000     0.0433896  
C        C      0.524100000000     0.672700000000     0.423000000000     0.0433896  
C        C      0.586700000000     0.648200000000     0.363800000000     0.0433896  
C        C      0.659900000000     0.572400000000     0.395400000000     0.0433896  
C        C      0.673800000000     0.523600000000     0.485200000000     0.0433896  
C        C      0.611600000000     0.549600000000     0.542800000000     0.0433896  
C        C      0.535200000000     0.622400000000     0.512000000000     0.0433896  
C        C      0.704000000000     0.439100000000     0.664800000000     0.0433896  
C        C      0.702300000000     0.409200000000     0.761700000000     0.0433896  
C        C      0.775600000000     0.438700000000     0.798700000000     0.0433896  
C        C      0.784300000000     0.412300000000     0.893500000000     0.0433896  
C        C      0.711500000000     0.294700000000     0.031500000000     0.0433896  
C        C      0.762200000000     0.342100000000     0.077400000000     0.0433896  
C        C      0.750000000000     0.302700000000     0.168400000000     0.0433896  
C        C      0.688200000000     0.215600000000     0.213500000000     0.0433896  
C        C      0.637200000000     0.168900000000     0.167300000000     0.0433896  
C        C      0.650200000000     0.207800000000     0.076600000000     0.0433896  
C        C      0.800500000000     0.353800000000     0.218800000000     0.0433896  
C        C      0.562200000000     0.081700000000     0.213900000000     0.0433896  
C        C      0.768400000000     0.125700000000     0.783000000000     0.0433896  
C        C      0.048800000000     0.328400000000     0.840000000000     0.0433896  
C        C      0.837800000000     0.143600000000     0.845800000000     0.0433896  
C        C      0.908500000000     0.224100000000     0.814800000000     0.0433896  
C        C      0.973800000000     0.238900000000     0.872800000000     0.0433896  
C        C      0.967600000000     0.173200000000     0.960600000000     0.0433896  
C        C      0.894400000000     0.093200000000     0.991700000000     0.0433896  
C        C      0.828800000000     0.078900000000     0.934400000000     0.0433896  
C        C      0.820500000000     0.950600000000     0.115500000000     0.0433896  
C        C      0.841800000000     0.897100000000     0.209700000000     0.0433896  
C        C      0.699500000000     0.925000000000     0.684000000000     0.0433896  
C        C      0.945100000000     0.658600000000     0.675700000000     0.0433896  
C        C      0.752300000000     0.870000000000     0.633300000000     0.0433896  
C        C      0.817800000000     0.790400000000     0.677000000000     0.0433896  
C        C      0.867200000000     0.737500000000     0.631400000000     0.0433896  
C        C      0.847100000000     0.760800000000     0.544100000000     0.0433896  
C        C      0.779200000000     0.840000000000     0.502000000000     0.0433896  
C        C      0.733600000000     0.895500000000     0.546300000000     0.0433896  
C        C      0.799900000000     0.813900000000     0.368600000000     0.0433896  
C        C      0.772400000000     0.869600000000     0.275900000000     0.0433896  
C        C      0.553700000000     0.244300000000     0.611200000000     0.0433896  
C        C      0.274200000000     0.455700000000     0.668100000000     0.0433896  
C        C      0.475900000000     0.327300000000     0.577000000000     0.0433896  
C        C      0.413300000000     0.351800000000     0.636200000000     0.0433896  
C        C      0.340100000000     0.427600000000     0.604600000000     0.0433896  
C        C      0.326200000000     0.476400000000     0.514800000000     0.0433896  
C        C      0.388400000000     0.450400000000     0.457200000000     0.0433896  
C        C      0.464800000000     0.377600000000     0.488000000000     0.0433896  
C        C      0.296000000000     0.560900000000     0.335200000000     0.0433896  
C        C      0.297700000000     0.590800000000     0.238300000000     0.0433896  
C        C      0.224400000000     0.561300000000     0.201300000000     0.0433896  
C        C      0.215700000000     0.587700000000     0.106500000000     0.0433896  
C        C      0.288500000000     0.705300000000     0.968500000000     0.0433896  
C        C      0.237800000000     0.657900000000     0.922600000000     0.0433896  
C        C      0.250000000000     0.697300000000     0.831600000000     0.0433896  
C        C      0.311800000000     0.784400000000     0.786500000000     0.0433896  
C        C      0.362800000000     0.831100000000     0.832700000000     0.0433896  
C        C      0.349800000000     0.792200000000     0.923400000000     0.0433896  
C        C      0.199500000000     0.646200000000     0.781200000000     0.0433896  
C        C      0.437800000000     0.918300000000     0.786100000000     0.0433896  
O        O      0.301100000000     0.942400000000     0.182910000000    -0.260211   
O        O      0.215000000000     0.822300000000     0.297300000000    -0.260211   
O        O      0.968000000000     0.599900000000     0.232590000000    -0.260211   
O        O      0.879100000000     0.674000000000     0.112590000000    -0.260211   
O        O      0.107700000000     0.965200000000     0.920120000000    -0.260211   
O        O      0.324800000000     0.979540000000     0.356260000000    -0.260211   
O        O      0.323200000000     0.122900000000     0.237000000000    -0.260211   
O        O      0.999600000000     0.376000000000     0.372010000000    -0.260211   
O        O      0.043200000000     0.370600000000     0.244380000000    -0.260211   
O        O      0.244700000000     0.129900000000     0.583300000000    -0.260211   
O        O      0.464800000000     0.820900000000     0.310920000000    -0.260211   
O        O      0.370300000000     0.754600000000     0.437710000000    -0.260211   
O        O      0.798400000000     0.483000000000     0.362860000000    -0.260211   
O        O      0.705000000000     0.581500000000     0.253360000000    -0.260211   
O        O      0.618200000000     0.506100000000     0.632360000000    -0.260211   
O        O      0.716200000000     0.328000000000     0.942390000000    -0.260211   
O        O      0.833190000000     0.448550000000     0.178130000000    -0.260211   
O        O      0.812300000000     0.307200000000     0.298490000000    -0.260211   
O        O      0.516500000000     0.043500000000     0.168400000000    -0.260211   
O        O      0.543100000000     0.051900000000     0.294300000000    -0.260211   
O        O      0.698900000000     0.057600000000     0.817090000000    -0.260211   
O        O      0.785000000000     0.177700000000     0.702700000000    -0.260211   
O        O      0.032000000000     0.400100000000     0.767410000000    -0.260211   
O        O      0.120900000000     0.326000000000     0.887410000000    -0.260211   
O        O      0.892300000000     0.034800000000     0.079880000000    -0.260211   
O        O      0.675200000000     0.020460000000     0.643740000000    -0.260211   
O        O      0.676800000000     0.877100000000     0.763000000000    -0.260211   
O        O      0.000400000000     0.624000000000     0.627990000000    -0.260211   
O        O      0.956800000000     0.629400000000     0.755620000000    -0.260211   
O        O      0.755300000000     0.870100000000     0.416700000000    -0.260211   
O        O      0.535200000000     0.179100000000     0.689080000000    -0.260211   
O        O      0.629700000000     0.245400000000     0.562290000000    -0.260211   
O        O      0.201600000000     0.517000000000     0.637140000000    -0.260211   
O        O      0.295000000000     0.418500000000     0.746640000000    -0.260211   
O        O      0.381800000000     0.493900000000     0.367640000000    -0.260211   
O        O      0.283800000000     0.672000000000     0.057610000000    -0.260211   
O        O      0.166810000000     0.551450000000     0.821870000000    -0.260211   
O        O      0.187700000000     0.692800000000     0.701510000000    -0.260211   
O        O      0.483500000000     0.956500000000     0.831600000000    -0.260211   
O        O      0.456900000000     0.948100000000     0.705700000000    -0.260211   


