data_HICVOG_original

_audit_creation_method RASPA-1.0
_audit_creation_date 2022-1-28
_audit_author_name 'Felipe Lopes de Oliveira <felipe.lopes.oliveira@ibm.com>'

_cell_length_a    10.814
_cell_length_b    10.814
_cell_length_c    25.41
_cell_angle_alpha 90
_cell_angle_beta  90
_cell_angle_gamma 90
_cell_volume      2971.51

_symmetry_cell_setting          triclinic
_symmetry_space_group_name_Hall 'P 1'
_symmetry_space_group_name_H-M  'P 1'
_symmetry_Int_Tables_number     1

_symmetry_equiv_pos_as_xyz 'x,y,z'

loop_
_atom_site_label
_atom_site_type_symbol
_atom_site_fract_x
_atom_site_fract_y
_atom_site_fract_z
_atom_site_charge
Zn       Zn     0.456590000000     0.459060000000     0.920750000000     0.431041   
Zn       Zn     0.543410000000     0.540940000000     0.420750000000     0.431041   
Zn       Zn     0.040940000000     0.956590000000     0.170750000000     0.431041   
Zn       Zn     0.959060000000     0.043410000000     0.670750000000     0.431041   
Zn       Zn     0.043410000000     0.959060000000     0.329250000000     0.431041   
Zn       Zn     0.956590000000     0.040940000000     0.829250000000     0.431041   
Zn       Zn     0.459060000000     0.456590000000     0.079250000000     0.431041   
Zn       Zn     0.540940000000     0.543410000000     0.579250000000     0.431041   
H        H      0.332000000000     0.316000000000     0.791700000000     0.0516908  
H        H      0.161400000000     0.200300000000     0.769700000000     0.0516908  
H        H      0.093400000000     0.144700000000     0.918300000000     0.0516908  
H        H      0.695800000000     0.736900000000     0.922100000000     0.0516908  
H        H      0.668000000000     0.684000000000     0.291700000000     0.0516908  
H        H      0.838600000000     0.799700000000     0.269700000000     0.0516908  
H        H      0.906600000000     0.855300000000     0.418300000000     0.0516908  
H        H      0.304200000000     0.263100000000     0.422100000000     0.0516908  
H        H      0.184000000000     0.832000000000     0.041700000000     0.0516908  
H        H      0.299700000000     0.661400000000     0.019700000000     0.0516908  
H        H      0.355300000000     0.593400000000     0.168300000000     0.0516908  
H        H      0.763100000000     0.195800000000     0.172100000000     0.0516908  
H        H      0.816000000000     0.168000000000     0.541700000000     0.0516908  
H        H      0.700300000000     0.338600000000     0.519700000000     0.0516908  
H        H      0.644700000000     0.406600000000     0.668300000000     0.0516908  
H        H      0.236900000000     0.804200000000     0.672100000000     0.0516908  
H        H      0.168000000000     0.816000000000     0.458300000000     0.0516908  
H        H      0.338600000000     0.700300000000     0.480300000000     0.0516908  
H        H      0.406600000000     0.644700000000     0.331700000000     0.0516908  
H        H      0.804200000000     0.236900000000     0.327900000000     0.0516908  
H        H      0.832000000000     0.184000000000     0.958300000000     0.0516908  
H        H      0.661400000000     0.299700000000     0.980300000000     0.0516908  
H        H      0.593400000000     0.355300000000     0.831700000000     0.0516908  
H        H      0.195800000000     0.763100000000     0.827900000000     0.0516908  
H        H      0.316000000000     0.332000000000     0.208300000000     0.0516908  
H        H      0.200300000000     0.161400000000     0.230300000000     0.0516908  
H        H      0.144700000000     0.093400000000     0.081700000000     0.0516908  
H        H      0.736900000000     0.695800000000     0.077900000000     0.0516908  
H        H      0.684000000000     0.668000000000     0.708300000000     0.0516908  
H        H      0.799700000000     0.838600000000     0.730300000000     0.0516908  
H        H      0.855300000000     0.906600000000     0.581700000000     0.0516908  
H        H      0.263100000000     0.304200000000     0.577900000000     0.0516908  
H        H      0.944000000000     0.944000000000     0.000000000000     0.0516908  
H        H      0.056000000000     0.056000000000     0.500000000000     0.0516908  
H        H      0.556000000000     0.444000000000     0.250000000000     0.0516908  
H        H      0.444000000000     0.556000000000     0.750000000000     0.0516908  
C        C      0.282900000000     0.283400000000     0.818370000000     0.0631974  
C        C      0.181200000000     0.211200000000     0.805010000000     0.0631974  
C        C      0.140900000000     0.179400000000     0.891600000000     0.0631974  
C        C      0.241600000000     0.253400000000     0.904660000000     0.0631974  
C        C      0.271800000000     0.277600000000     0.959340000000     0.0631974  
C        C      0.735200000000     0.758600000000     0.953310000000     0.0631974  
C        C      0.827300000000     0.848000000000     0.952930000000     0.0631974  
C        C      0.866400000000     0.907800000000     0.902320000000     0.0631974  
C        C      0.717100000000     0.716600000000     0.318370000000     0.0631974  
C        C      0.818800000000     0.788800000000     0.305010000000     0.0631974  
C        C      0.859100000000     0.820600000000     0.391600000000     0.0631974  
C        C      0.758400000000     0.746600000000     0.404660000000     0.0631974  
C        C      0.728200000000     0.722400000000     0.459340000000     0.0631974  
C        C      0.264800000000     0.241400000000     0.453310000000     0.0631974  
C        C      0.172700000000     0.152000000000     0.452930000000     0.0631974  
C        C      0.133600000000     0.092200000000     0.402320000000     0.0631974  
C        C      0.216600000000     0.782900000000     0.068370000000     0.0631974  
C        C      0.288800000000     0.681200000000     0.055010000000     0.0631974  
C        C      0.320600000000     0.640900000000     0.141600000000     0.0631974  
C        C      0.246600000000     0.741600000000     0.154660000000     0.0631974  
C        C      0.222400000000     0.771800000000     0.209340000000     0.0631974  
C        C      0.741400000000     0.235200000000     0.203310000000     0.0631974  
C        C      0.652000000000     0.327300000000     0.202930000000     0.0631974  
C        C      0.592200000000     0.366400000000     0.152320000000     0.0631974  
C        C      0.783400000000     0.217100000000     0.568370000000     0.0631974  
C        C      0.711200000000     0.318800000000     0.555010000000     0.0631974  
C        C      0.679400000000     0.359100000000     0.641600000000     0.0631974  
C        C      0.753400000000     0.258400000000     0.654660000000     0.0631974  
C        C      0.777600000000     0.228200000000     0.709340000000     0.0631974  
C        C      0.258600000000     0.764800000000     0.703310000000     0.0631974  
C        C      0.348000000000     0.672700000000     0.702930000000     0.0631974  
C        C      0.407800000000     0.633600000000     0.652320000000     0.0631974  
C        C      0.217100000000     0.783400000000     0.431630000000     0.0631974  
C        C      0.318800000000     0.711200000000     0.444990000000     0.0631974  
C        C      0.359100000000     0.679400000000     0.358400000000     0.0631974  
C        C      0.258400000000     0.753400000000     0.345340000000     0.0631974  
C        C      0.228200000000     0.777600000000     0.290660000000     0.0631974  
C        C      0.764800000000     0.258600000000     0.296690000000     0.0631974  
C        C      0.672700000000     0.348000000000     0.297070000000     0.0631974  
C        C      0.633600000000     0.407800000000     0.347680000000     0.0631974  
C        C      0.782900000000     0.216600000000     0.931630000000     0.0631974  
C        C      0.681200000000     0.288800000000     0.944990000000     0.0631974  
C        C      0.640900000000     0.320600000000     0.858400000000     0.0631974  
C        C      0.741600000000     0.246600000000     0.845340000000     0.0631974  
C        C      0.771800000000     0.222400000000     0.790660000000     0.0631974  
C        C      0.235200000000     0.741400000000     0.796690000000     0.0631974  
C        C      0.327300000000     0.652000000000     0.797070000000     0.0631974  
C        C      0.366400000000     0.592200000000     0.847680000000     0.0631974  
C        C      0.283400000000     0.282900000000     0.181630000000     0.0631974  
C        C      0.211200000000     0.181200000000     0.194990000000     0.0631974  
C        C      0.179400000000     0.140900000000     0.108400000000     0.0631974  
C        C      0.253400000000     0.241600000000     0.095340000000     0.0631974  
C        C      0.277600000000     0.271800000000     0.040660000000     0.0631974  
C        C      0.758600000000     0.735200000000     0.046690000000     0.0631974  
C        C      0.848000000000     0.827300000000     0.047070000000     0.0631974  
C        C      0.907800000000     0.866400000000     0.097680000000     0.0631974  
C        C      0.716600000000     0.717100000000     0.681630000000     0.0631974  
C        C      0.788800000000     0.818800000000     0.694990000000     0.0631974  
C        C      0.820600000000     0.859100000000     0.608400000000     0.0631974  
C        C      0.746600000000     0.758400000000     0.595340000000     0.0631974  
C        C      0.722400000000     0.728200000000     0.540660000000     0.0631974  
C        C      0.241400000000     0.264800000000     0.546690000000     0.0631974  
C        C      0.152000000000     0.172700000000     0.547070000000     0.0631974  
C        C      0.092200000000     0.133600000000     0.597680000000     0.0631974  
C        C      0.603800000000     0.603800000000     0.000000000000     0.0631974  
C        C      0.701700000000     0.701700000000     0.000000000000     0.0631974  
C        C      0.883200000000     0.883200000000     0.000000000000     0.0631974  
C        C      0.396200000000     0.396200000000     0.500000000000     0.0631974  
C        C      0.298300000000     0.298300000000     0.500000000000     0.0631974  
C        C      0.116800000000     0.116800000000     0.500000000000     0.0631974  
C        C      0.896200000000     0.103800000000     0.250000000000     0.0631974  
C        C      0.798300000000     0.201700000000     0.250000000000     0.0631974  
C        C      0.616800000000     0.383200000000     0.250000000000     0.0631974  
C        C      0.103800000000     0.896200000000     0.750000000000     0.0631974  
C        C      0.201700000000     0.798300000000     0.750000000000     0.0631974  
C        C      0.383200000000     0.616800000000     0.750000000000     0.0631974  
N        N      0.111400000000     0.157400000000     0.841720000000    -0.12523    
N        N      0.311900000000     0.306900000000     0.868210000000    -0.12523    
N        N      0.357300000000     0.360400000000     0.973370000000    -0.12523    
N        N      0.888600000000     0.842600000000     0.341720000000    -0.12523    
N        N      0.688100000000     0.693100000000     0.368210000000    -0.12523    
N        N      0.642700000000     0.639600000000     0.473370000000    -0.12523    
N        N      0.342600000000     0.611400000000     0.091720000000    -0.12523    
N        N      0.193100000000     0.811900000000     0.118210000000    -0.12523    
N        N      0.139600000000     0.857300000000     0.223370000000    -0.12523    
N        N      0.657400000000     0.388600000000     0.591720000000    -0.12523    
N        N      0.806900000000     0.188100000000     0.618210000000    -0.12523    
N        N      0.860400000000     0.142700000000     0.723370000000    -0.12523    
N        N      0.388600000000     0.657400000000     0.408280000000    -0.12523    
N        N      0.188100000000     0.806900000000     0.381790000000    -0.12523    
N        N      0.142700000000     0.860400000000     0.276630000000    -0.12523    
N        N      0.611400000000     0.342600000000     0.908280000000    -0.12523    
N        N      0.811900000000     0.193100000000     0.881790000000    -0.12523    
N        N      0.857300000000     0.139600000000     0.776630000000    -0.12523    
N        N      0.157400000000     0.111400000000     0.158280000000    -0.12523    
N        N      0.306900000000     0.311900000000     0.131790000000    -0.12523    
N        N      0.360400000000     0.357300000000     0.026630000000    -0.12523    
N        N      0.842600000000     0.888600000000     0.658280000000    -0.12523    
N        N      0.693100000000     0.688100000000     0.631790000000    -0.12523    
N        N      0.639600000000     0.642700000000     0.526630000000    -0.12523    
N        N      0.219610000000     0.219610000000     0.000000000000    -0.12523    
N        N      0.780390000000     0.780390000000     0.500000000000    -0.12523    
N        N      0.280390000000     0.719610000000     0.250000000000    -0.12523    
N        N      0.719610000000     0.280390000000     0.750000000000    -0.12523    
O        O      0.537200000000     0.594750000000     0.959880000000    -0.275241   
O        O      0.800700000000     0.902800000000     0.862210000000    -0.275241   
O        O      0.966400000000     0.967000000000     0.902090000000    -0.275241   
O        O      0.462800000000     0.405250000000     0.459880000000    -0.275241   
O        O      0.199300000000     0.097200000000     0.362210000000    -0.275241   
O        O      0.033600000000     0.033000000000     0.402090000000    -0.275241   
O        O      0.905250000000     0.037200000000     0.209880000000    -0.275241   
O        O      0.597200000000     0.300700000000     0.112210000000    -0.275241   
O        O      0.533000000000     0.466400000000     0.152090000000    -0.275241   
O        O      0.094750000000     0.962800000000     0.709880000000    -0.275241   
O        O      0.402800000000     0.699300000000     0.612210000000    -0.275241   
O        O      0.467000000000     0.533600000000     0.652090000000    -0.275241   
O        O      0.962800000000     0.094750000000     0.290120000000    -0.275241   
O        O      0.699300000000     0.402800000000     0.387790000000    -0.275241   
O        O      0.533600000000     0.467000000000     0.347910000000    -0.275241   
O        O      0.037200000000     0.905250000000     0.790120000000    -0.275241   
O        O      0.300700000000     0.597200000000     0.887790000000    -0.275241   
O        O      0.466400000000     0.533000000000     0.847910000000    -0.275241   
O        O      0.594750000000     0.537200000000     0.040120000000    -0.275241   
O        O      0.902800000000     0.800700000000     0.137790000000    -0.275241   
O        O      0.967000000000     0.966400000000     0.097910000000    -0.275241   
O        O      0.405250000000     0.462800000000     0.540120000000    -0.275241   
O        O      0.097200000000     0.199300000000     0.637790000000    -0.275241   
O        O      0.033000000000     0.033600000000     0.597910000000    -0.275241   


