data_HIDMEO_original

_audit_creation_method RASPA-1.0
_audit_creation_date 2022-1-29
_audit_author_name 'Felipe Lopes de Oliveira <felipe.lopes.oliveira@ibm.com>'

_cell_length_a    10.2304
_cell_length_b    10.5293
_cell_length_c    13.0853
_cell_angle_alpha 100.836
_cell_angle_beta  90.736
_cell_angle_gamma 113.42
_cell_volume      1264.34

_symmetry_cell_setting          triclinic
_symmetry_space_group_name_Hall 'P 1'
_symmetry_space_group_name_H-M  'P 1'
_symmetry_Int_Tables_number     1

_symmetry_equiv_pos_as_xyz 'x,y,z'

loop_
_atom_site_label
_atom_site_type_symbol
_atom_site_fract_x
_atom_site_fract_y
_atom_site_fract_z
_atom_site_charge
Zn       Zn     0.341900000000     0.195240000000     0.438930000000     0.429357   
Zn       Zn     0.658100000000     0.804760000000     0.561070000000     0.429357   
Zn       Zn     0.500000000000     0.000000000000     0.500000000000     0.429357   
H        H      0.579500000000     0.548900000000     0.717300000000     0.0789659  
H        H      0.812600000000     0.321600000000     0.718100000000     0.0789659  
H        H      0.714600000000     0.701700000000     0.870200000000     0.0789659  
H        H      0.357000000000     0.475600000000     0.552800000000     0.0789659  
H        H      0.738400000000     0.644500000000     0.064700000000     0.0789659  
H        H      0.226000000000     0.904900000000     0.115200000000     0.0789659  
H        H      0.131700000000     0.940500000000     0.873300000000     0.0789659  
H        H      0.300000000000     0.979600000000     0.754500000000     0.0789659  
H        H      0.380400000000     0.659400000000     0.809200000000     0.0789659  
H        H      0.221400000000     0.628300000000     0.937800000000     0.0789659  
H        H      0.218900000000     0.602100000000     0.582300000000     0.0789659  
H        H      0.903100000000     0.281500000000     0.399700000000     0.0789659  
H        H      0.052800000000     0.164200000000     0.371700000000     0.0789659  
H        H      0.940600000000     0.468900000000     0.869000000000     0.0789659  
H        H      0.652300000000     0.672700000000     0.308600000000     0.0789659  
H        H      0.420500000000     0.451100000000     0.282700000000     0.0789659  
H        H      0.187400000000     0.678400000000     0.281900000000     0.0789659  
H        H      0.285400000000     0.298300000000     0.129800000000     0.0789659  
H        H      0.643000000000     0.524400000000     0.447200000000     0.0789659  
H        H      0.261600000000     0.355500000000     0.935300000000     0.0789659  
H        H      0.774000000000     0.095100000000     0.884800000000     0.0789659  
H        H      0.868300000000     0.059500000000     0.126700000000     0.0789659  
H        H      0.700000000000     0.020400000000     0.245500000000     0.0789659  
H        H      0.619600000000     0.340600000000     0.190800000000     0.0789659  
H        H      0.778600000000     0.371700000000     0.062200000000     0.0789659  
H        H      0.781100000000     0.397900000000     0.417700000000     0.0789659  
H        H      0.096900000000     0.718500000000     0.600300000000     0.0789659  
H        H      0.947200000000     0.835800000000     0.628300000000     0.0789659  
H        H      0.059400000000     0.531100000000     0.131000000000     0.0789659  
H        H      0.347700000000     0.327300000000     0.691400000000     0.0789659  
C        C      0.580200000000     0.306900000000     0.614200000000     0.0286688  
C        C      0.673100000000     0.410700000000     0.707000000000     0.0286688  
C        C      0.649900000000     0.530400000000     0.749200000000     0.0286688  
C        C      0.788400000000     0.394900000000     0.750100000000     0.0286688  
C        C      0.733300000000     0.623900000000     0.840600000000     0.0286688  
C        C      0.843600000000     0.601300000000     0.887300000000     0.0286688  
C        C      0.263500000000     0.435300000000     0.521500000000     0.0286688  
C        C      0.918500000000     0.690200000000     0.989600000000     0.0286688  
C        C      0.837200000000     0.695000000000     0.074900000000     0.0286688  
C        C      0.901000000000     0.773600000000     0.174700000000     0.0286688  
C        C      0.805000000000     0.781300000000     0.258000000000     0.0286688  
C        C      0.047700000000     0.852900000000     0.191300000000     0.0286688  
C        C      0.123300000000     0.933000000000     0.296600000000     0.0286688  
C        C      0.127700000000     0.851200000000     0.105900000000     0.0286688  
C        C      0.064000000000     0.770900000000     0.006800000000     0.0286688  
C        C      0.456100000000     0.842600000000     0.680800000000     0.0286688  
C        C      0.183400000000     0.884500000000     0.862600000000     0.0286688  
C        C      0.282200000000     0.905800000000     0.789100000000     0.0286688  
C        C      0.353900000000     0.819900000000     0.766500000000     0.0286688  
C        C      0.331300000000     0.717600000000     0.822400000000     0.0286688  
C        C      0.235200000000     0.698100000000     0.899700000000     0.0286688  
C        C      0.161200000000     0.784100000000     0.918600000000     0.0286688  
C        C      0.181300000000     0.512800000000     0.538400000000     0.0286688  
C        C      0.046500000000     0.459800000000     0.491700000000     0.0286688  
C        C      0.996700000000     0.324900000000     0.431000000000     0.0286688  
C        C      0.086200000000     0.253000000000     0.416100000000     0.0286688  
C        C      0.867600000000     0.486100000000     0.839500000000     0.0286688  
C        C      0.419800000000     0.693100000000     0.385800000000     0.0286688  
C        C      0.326900000000     0.589300000000     0.293000000000     0.0286688  
C        C      0.350100000000     0.469600000000     0.250800000000     0.0286688  
C        C      0.211600000000     0.605100000000     0.249900000000     0.0286688  
C        C      0.266700000000     0.376100000000     0.159400000000     0.0286688  
C        C      0.156400000000     0.398700000000     0.112700000000     0.0286688  
C        C      0.736500000000     0.564700000000     0.478500000000     0.0286688  
C        C      0.081500000000     0.309800000000     0.010400000000     0.0286688  
C        C      0.162800000000     0.305000000000     0.925100000000     0.0286688  
C        C      0.099000000000     0.226400000000     0.825300000000     0.0286688  
C        C      0.195000000000     0.218700000000     0.742000000000     0.0286688  
C        C      0.952300000000     0.147100000000     0.808700000000     0.0286688  
C        C      0.876700000000     0.067000000000     0.703400000000     0.0286688  
C        C      0.872300000000     0.148800000000     0.894100000000     0.0286688  
C        C      0.936000000000     0.229100000000     0.993200000000     0.0286688  
C        C      0.543900000000     0.157400000000     0.319200000000     0.0286688  
C        C      0.816600000000     0.115500000000     0.137400000000     0.0286688  
C        C      0.717800000000     0.094200000000     0.210900000000     0.0286688  
C        C      0.646100000000     0.180100000000     0.233500000000     0.0286688  
C        C      0.668700000000     0.282400000000     0.177600000000     0.0286688  
C        C      0.764800000000     0.301900000000     0.100300000000     0.0286688  
C        C      0.838800000000     0.215900000000     0.081400000000     0.0286688  
C        C      0.818700000000     0.487200000000     0.461600000000     0.0286688  
C        C      0.953500000000     0.540200000000     0.508300000000     0.0286688  
C        C      0.003300000000     0.675100000000     0.569000000000     0.0286688  
C        C      0.913800000000     0.747000000000     0.583900000000     0.0286688  
C        C      0.132400000000     0.513900000000     0.160500000000     0.0286688  
N        N      0.215600000000     0.307500000000     0.463300000000    -0.164406   
N        N      0.784400000000     0.692500000000     0.536700000000    -0.164406   
O        O      0.828800000000     0.889200000000     0.322500000000    -0.304772   
O        O      0.696300000000     0.662500000000     0.258000000000    -0.304772   
O        O      0.207700000000     0.058700000000     0.305400000000    -0.304772   
O        O      0.100300000000     0.862200000000     0.368500000000    -0.304772   
O        O      0.466600000000     0.315700000000     0.583700000000    -0.304772   
O        O      0.618500000000     0.209700000000     0.571400000000    -0.304772   
O        O      0.503700000000     0.748700000000     0.651000000000    -0.304772   
O        O      0.484800000000     0.952400000000     0.645900000000    -0.304772   
O        O      0.171200000000     0.110800000000     0.677500000000    -0.304772   
O        O      0.303700000000     0.337500000000     0.742000000000    -0.304772   
O        O      0.792300000000     0.941300000000     0.694600000000    -0.304772   
O        O      0.899700000000     0.137800000000     0.631500000000    -0.304772   
O        O      0.533400000000     0.684300000000     0.416300000000    -0.304772   
O        O      0.381500000000     0.790300000000     0.428600000000    -0.304772   
O        O      0.496300000000     0.251300000000     0.349000000000    -0.304772   
O        O      0.515200000000     0.047600000000     0.354100000000    -0.304772   


