data_HIFTOG_original

_audit_creation_method RASPA-1.0
_audit_creation_date 2022-1-28
_audit_author_name 'Felipe Lopes de Oliveira <felipe.lopes.oliveira@ibm.com>'

_cell_length_a    18.3666
_cell_length_b    18.3666
_cell_length_c    18.3666
_cell_angle_alpha 60.0554
_cell_angle_beta  60.0554
_cell_angle_gamma 60.0554
_cell_volume      4386.48

_symmetry_cell_setting          triclinic
_symmetry_space_group_name_Hall 'P 1'
_symmetry_space_group_name_H-M  'P 1'
_symmetry_Int_Tables_number     1

_symmetry_equiv_pos_as_xyz 'x,y,z'

loop_
_atom_site_label
_atom_site_type_symbol
_atom_site_fract_x
_atom_site_fract_y
_atom_site_fract_z
_atom_site_charge
Zn       Zn     0.610470000000     0.784240000000     0.610470000000     0.472917   
Zn       Zn     0.197400000000     0.023470000000     0.197400000000     0.472917   
Zn       Zn     0.610470000000     0.610470000000     0.784240000000     0.472917   
Zn       Zn     0.197400000000     0.197410000000     0.023470000000     0.472917   
Zn       Zn     0.784240000000     0.610470000000     0.610470000000     0.472917   
Zn       Zn     0.023470000000     0.197410000000     0.197400000000     0.472917   
Zn       Zn     0.610110000000     0.610110000000     0.610110000000     0.472917   
Zn       Zn     0.197540000000     0.197540000000     0.197540000000     0.472917   
Zn       Zn     0.215760000000     0.389530000000     0.389530000000     0.472917   
Zn       Zn     0.976530000000     0.802590000000     0.802590000000     0.472917   
Zn       Zn     0.389530000000     0.389530000000     0.215760000000     0.472917   
Zn       Zn     0.802590000000     0.802600000000     0.976530000000     0.472917   
Zn       Zn     0.389530000000     0.215760000000     0.389530000000     0.472917   
Zn       Zn     0.802590000000     0.976530000000     0.802590000000     0.472917   
Zn       Zn     0.389890000000     0.389890000000     0.389890000000     0.472917   
Zn       Zn     0.802460000000     0.802460000000     0.802460000000     0.472917   
H        H      0.356900000000     0.839600000000     0.057300000000     0.0626639  
H        H      0.446200000000     0.750900000000     0.968200000000     0.0626639  
H        H      0.057300000000     0.356900000000     0.839600000000     0.0626639  
H        H      0.968200000000     0.446200000000     0.750900000000     0.0626639  
H        H      0.839600000000     0.057300000000     0.356900000000     0.0626639  
H        H      0.750900000000     0.968200000000     0.446200000000     0.0626639  
H        H      0.839600000000     0.356900000000     0.057300000000     0.0626639  
H        H      0.750900000000     0.446200000000     0.968200000000     0.0626639  
H        H      0.356900000000     0.057300000000     0.839600000000     0.0626639  
H        H      0.446200000000     0.968200000000     0.750900000000     0.0626639  
H        H      0.057300000000     0.839600000000     0.356900000000     0.0626639  
H        H      0.968200000000     0.750900000000     0.446200000000     0.0626639  
H        H      0.359400000000     0.056200000000     0.359400000000     0.0626639  
H        H      0.448000000000     0.968100000000     0.448000000000     0.0626639  
H        H      0.359200000000     0.840000000000     0.359200000000     0.0626639  
H        H      0.448200000000     0.750800000000     0.448200000000     0.0626639  
H        H      0.359400000000     0.359400000000     0.056200000000     0.0626639  
H        H      0.448000000000     0.448000000000     0.968100000000     0.0626639  
H        H      0.359200000000     0.359200000000     0.840000000000     0.0626639  
H        H      0.448200000000     0.448200000000     0.750800000000     0.0626639  
H        H      0.056200000000     0.359400000000     0.359400000000     0.0626639  
H        H      0.968100000000     0.448000000000     0.448000000000     0.0626639  
H        H      0.840000000000     0.359200000000     0.359200000000     0.0626639  
H        H      0.750800000000     0.448200000000     0.448200000000     0.0626639  
H        H      0.160400000000     0.643100000000     0.942700000000     0.0626639  
H        H      0.249100000000     0.553800000000     0.031800000000     0.0626639  
H        H      0.643100000000     0.942700000000     0.160400000000     0.0626639  
H        H      0.553800000000     0.031800000000     0.249100000000     0.0626639  
H        H      0.942700000000     0.160400000000     0.643100000000     0.0626639  
H        H      0.031800000000     0.249100000000     0.553800000000     0.0626639  
H        H      0.643100000000     0.160400000000     0.942700000000     0.0626639  
H        H      0.553800000000     0.249100000000     0.031800000000     0.0626639  
H        H      0.942700000000     0.643100000000     0.160400000000     0.0626639  
H        H      0.031800000000     0.553800000000     0.249100000000     0.0626639  
H        H      0.160400000000     0.942700000000     0.643100000000     0.0626639  
H        H      0.249100000000     0.031800000000     0.553800000000     0.0626639  
H        H      0.943800000000     0.640600000000     0.640600000000     0.0626639  
H        H      0.031900000000     0.552000000000     0.552000000000     0.0626639  
H        H      0.160000000000     0.640800000000     0.640800000000     0.0626639  
H        H      0.249200000000     0.551800000000     0.551800000000     0.0626639  
H        H      0.640600000000     0.640600000000     0.943800000000     0.0626639  
H        H      0.552000000000     0.552000000000     0.031900000000     0.0626639  
H        H      0.640800000000     0.640800000000     0.160000000000     0.0626639  
H        H      0.551800000000     0.551800000000     0.249200000000     0.0626639  
H        H      0.640600000000     0.943800000000     0.640600000000     0.0626639  
H        H      0.552000000000     0.031900000000     0.552000000000     0.0626639  
H        H      0.640800000000     0.160000000000     0.640800000000     0.0626639  
H        H      0.551800000000     0.249200000000     0.551800000000     0.0626639  
C        C      0.375410000000     0.865910000000     0.995710000000     0.0591529  
C        C      0.429150000000     0.812650000000     0.941950000000     0.0591529  
C        C      0.995710000000     0.375410000000     0.865910000000     0.0591529  
C        C      0.941950000000     0.429150000000     0.812650000000     0.0591529  
C        C      0.865910000000     0.995710000000     0.375410000000     0.0591529  
C        C      0.812650000000     0.941950000000     0.429150000000     0.0591529  
C        C      0.865910000000     0.375410000000     0.995710000000     0.0591529  
C        C      0.812650000000     0.429150000000     0.941950000000     0.0591529  
C        C      0.375410000000     0.995710000000     0.865910000000     0.0591529  
C        C      0.429150000000     0.941950000000     0.812650000000     0.0591529  
C        C      0.995710000000     0.865910000000     0.375410000000     0.0591529  
C        C      0.941950000000     0.812650000000     0.429150000000     0.0591529  
C        C      0.291810000000     0.016330000000     0.291810000000     0.0591529  
C        C      0.350130000000     0.957410000000     0.350130000000     0.0591529  
C        C      0.377030000000     0.994630000000     0.377030000000     0.0591529  
C        C      0.430560000000     0.941360000000     0.430560000000     0.0591529  
C        C      0.377000000000     0.866200000000     0.377000000000     0.0591529  
C        C      0.430480000000     0.812580000000     0.430480000000     0.0591529  
C        C      0.457820000000     0.850690000000     0.457820000000     0.0591529  
C        C      0.515560000000     0.792120000000     0.515560000000     0.0591529  
C        C      0.291810000000     0.291810000000     0.016330000000     0.0591529  
C        C      0.350130000000     0.350130000000     0.957410000000     0.0591529  
C        C      0.377030000000     0.377030000000     0.994630000000     0.0591529  
C        C      0.430560000000     0.430560000000     0.941360000000     0.0591529  
C        C      0.377000000000     0.377000000000     0.866200000000     0.0591529  
C        C      0.430480000000     0.430480000000     0.812580000000     0.0591529  
C        C      0.457820000000     0.457820000000     0.850690000000     0.0591529  
C        C      0.515560000000     0.515560000000     0.792120000000     0.0591529  
C        C      0.016330000000     0.291810000000     0.291810000000     0.0591529  
C        C      0.957410000000     0.350130000000     0.350130000000     0.0591529  
C        C      0.994630000000     0.377030000000     0.377030000000     0.0591529  
C        C      0.941360000000     0.430560000000     0.430560000000     0.0591529  
C        C      0.866200000000     0.377000000000     0.377000000000     0.0591529  
C        C      0.812580000000     0.430480000000     0.430480000000     0.0591529  
C        C      0.850690000000     0.457820000000     0.457820000000     0.0591529  
C        C      0.792120000000     0.515560000000     0.515560000000     0.0591529  
C        C      0.291700000000     0.015850000000     0.015850000000     0.0591529  
C        C      0.349190000000     0.957990000000     0.957990000000     0.0591529  
C        C      0.457580000000     0.850080000000     0.850080000000     0.0591529  
C        C      0.515830000000     0.791820000000     0.791820000000     0.0591529  
C        C      0.015850000000     0.291700000000     0.015850000000     0.0591529  
C        C      0.957990000000     0.349190000000     0.957990000000     0.0591529  
C        C      0.850080000000     0.457580000000     0.850080000000     0.0591529  
C        C      0.791820000000     0.515830000000     0.791820000000     0.0591529  
C        C      0.015850000000     0.015850000000     0.291700000000     0.0591529  
C        C      0.957990000000     0.957990000000     0.349190000000     0.0591529  
C        C      0.850080000000     0.850080000000     0.457580000000     0.0591529  
C        C      0.791820000000     0.791820000000     0.515830000000     0.0591529  
C        C      0.134090000000     0.624590000000     0.004290000000     0.0591529  
C        C      0.187350000000     0.570850000000     0.058050000000     0.0591529  
C        C      0.624590000000     0.004290000000     0.134090000000     0.0591529  
C        C      0.570850000000     0.058050000000     0.187350000000     0.0591529  
C        C      0.004290000000     0.134090000000     0.624590000000     0.0591529  
C        C      0.058050000000     0.187350000000     0.570850000000     0.0591529  
C        C      0.624590000000     0.134090000000     0.004290000000     0.0591529  
C        C      0.570850000000     0.187350000000     0.058050000000     0.0591529  
C        C      0.004290000000     0.624590000000     0.134090000000     0.0591529  
C        C      0.058050000000     0.570850000000     0.187350000000     0.0591529  
C        C      0.134090000000     0.004290000000     0.624590000000     0.0591529  
C        C      0.187350000000     0.058050000000     0.570850000000     0.0591529  
C        C      0.983670000000     0.708190000000     0.708190000000     0.0591529  
C        C      0.042590000000     0.649870000000     0.649870000000     0.0591529  
C        C      0.005370000000     0.622970000000     0.622970000000     0.0591529  
C        C      0.058640000000     0.569440000000     0.569440000000     0.0591529  
C        C      0.133800000000     0.623000000000     0.623000000000     0.0591529  
C        C      0.187420000000     0.569520000000     0.569520000000     0.0591529  
C        C      0.149310000000     0.542180000000     0.542180000000     0.0591529  
C        C      0.207880000000     0.484440000000     0.484440000000     0.0591529  
C        C      0.708190000000     0.708190000000     0.983670000000     0.0591529  
C        C      0.649870000000     0.649870000000     0.042590000000     0.0591529  
C        C      0.622970000000     0.622970000000     0.005370000000     0.0591529  
C        C      0.569440000000     0.569440000000     0.058640000000     0.0591529  
C        C      0.623000000000     0.623000000000     0.133800000000     0.0591529  
C        C      0.569520000000     0.569520000000     0.187420000000     0.0591529  
C        C      0.542180000000     0.542180000000     0.149310000000     0.0591529  
C        C      0.484440000000     0.484440000000     0.207880000000     0.0591529  
C        C      0.708190000000     0.983670000000     0.708190000000     0.0591529  
C        C      0.649870000000     0.042590000000     0.649870000000     0.0591529  
C        C      0.622970000000     0.005370000000     0.622970000000     0.0591529  
C        C      0.569440000000     0.058640000000     0.569440000000     0.0591529  
C        C      0.623000000000     0.133800000000     0.623000000000     0.0591529  
C        C      0.569520000000     0.187420000000     0.569520000000     0.0591529  
C        C      0.542180000000     0.149310000000     0.542180000000     0.0591529  
C        C      0.484440000000     0.207880000000     0.484440000000     0.0591529  
C        C      0.984150000000     0.708300000000     0.984150000000     0.0591529  
C        C      0.042010000000     0.650810000000     0.042010000000     0.0591529  
C        C      0.149920000000     0.542420000000     0.149920000000     0.0591529  
C        C      0.208180000000     0.484170000000     0.208180000000     0.0591529  
C        C      0.708300000000     0.984150000000     0.984150000000     0.0591529  
C        C      0.650810000000     0.042010000000     0.042010000000     0.0591529  
C        C      0.542420000000     0.149920000000     0.149920000000     0.0591529  
C        C      0.484170000000     0.208180000000     0.208180000000     0.0591529  
C        C      0.984150000000     0.984150000000     0.708300000000     0.0591529  
C        C      0.042010000000     0.042010000000     0.650810000000     0.0591529  
C        C      0.149920000000     0.149920000000     0.542420000000     0.0591529  
C        C      0.208180000000     0.208180000000     0.484170000000     0.0591529  
O        O      0.538310000000     0.830710000000     0.709010000000    -0.312562   
O        O      0.269750000000     0.977250000000     0.098150000000    -0.312562   
O        O      0.709010000000     0.538310000000     0.830710000000    -0.312562   
O        O      0.098150000000     0.269750000000     0.977250000000    -0.312562   
O        O      0.830710000000     0.709010000000     0.538310000000    -0.312562   
O        O      0.977250000000     0.098150000000     0.269750000000    -0.312562   
O        O      0.830710000000     0.538310000000     0.709010000000    -0.312562   
O        O      0.977250000000     0.269750000000     0.098150000000    -0.312562   
O        O      0.538310000000     0.709010000000     0.830710000000    -0.312562   
O        O      0.269750000000     0.098150000000     0.977250000000    -0.312562   
O        O      0.709010000000     0.830710000000     0.538310000000    -0.312562   
O        O      0.098150000000     0.977250000000     0.269750000000    -0.312562   
O        O      0.537760000000     0.830970000000     0.537760000000    -0.312562   
O        O      0.537510000000     0.709730000000     0.537510000000    -0.312562   
O        O      0.270190000000     0.098150000000     0.270190000000    -0.312562   
O        O      0.269970000000     0.977180000000     0.269970000000    -0.312562   
O        O      0.537760000000     0.537760000000     0.830970000000    -0.312562   
O        O      0.537510000000     0.537510000000     0.709730000000    -0.312562   
O        O      0.270190000000     0.270190000000     0.098150000000    -0.312562   
O        O      0.269970000000     0.269970000000     0.977180000000    -0.312562   
O        O      0.830970000000     0.537760000000     0.537760000000    -0.312562   
O        O      0.709730000000     0.537510000000     0.537510000000    -0.312562   
O        O      0.098150000000     0.270190000000     0.270190000000    -0.312562   
O        O      0.977180000000     0.269970000000     0.269970000000    -0.312562   
O        O      0.653680000000     0.653680000000     0.653680000000    -0.312562   
O        O      0.154330000000     0.154330000000     0.154330000000    -0.312562   
O        O      0.169290000000     0.461690000000     0.290990000000    -0.312562   
O        O      0.022750000000     0.730250000000     0.901850000000    -0.312562   
O        O      0.461690000000     0.290990000000     0.169290000000    -0.312562   
O        O      0.730250000000     0.901850000000     0.022750000000    -0.312562   
O        O      0.290990000000     0.169290000000     0.461690000000    -0.312562   
O        O      0.901850000000     0.022750000000     0.730250000000    -0.312562   
O        O      0.461690000000     0.169290000000     0.290990000000    -0.312562   
O        O      0.730250000000     0.022750000000     0.901850000000    -0.312562   
O        O      0.290990000000     0.461690000000     0.169290000000    -0.312562   
O        O      0.901850000000     0.730250000000     0.022750000000    -0.312562   
O        O      0.169290000000     0.290990000000     0.461690000000    -0.312562   
O        O      0.022750000000     0.901850000000     0.730250000000    -0.312562   
O        O      0.169030000000     0.462240000000     0.462240000000    -0.312562   
O        O      0.290270000000     0.462490000000     0.462490000000    -0.312562   
O        O      0.901850000000     0.729810000000     0.729810000000    -0.312562   
O        O      0.022820000000     0.730030000000     0.730030000000    -0.312562   
O        O      0.462240000000     0.462240000000     0.169030000000    -0.312562   
O        O      0.462490000000     0.462490000000     0.290270000000    -0.312562   
O        O      0.729810000000     0.729810000000     0.901850000000    -0.312562   
O        O      0.730030000000     0.730030000000     0.022820000000    -0.312562   
O        O      0.462240000000     0.169030000000     0.462240000000    -0.312562   
O        O      0.462490000000     0.290270000000     0.462490000000    -0.312562   
O        O      0.729810000000     0.901850000000     0.729810000000    -0.312562   
O        O      0.730030000000     0.022820000000     0.730030000000    -0.312562   
O        O      0.346320000000     0.346320000000     0.346320000000    -0.312562   
O        O      0.845670000000     0.845670000000     0.845670000000    -0.312562   


