data_HOMZEP_original

_audit_creation_method RASPA-1.0
_audit_creation_date 2022-1-30
_audit_author_name 'Felipe Lopes de Oliveira <felipe.lopes.oliveira@ibm.com>'

_cell_length_a    14.5665
_cell_length_b    14.5665
_cell_length_c    31.6835
_cell_angle_alpha 90
_cell_angle_beta  90
_cell_angle_gamma 120
_cell_volume      5822.03

_symmetry_cell_setting          triclinic
_symmetry_space_group_name_Hall 'P 1'
_symmetry_space_group_name_H-M  'P 1'
_symmetry_Int_Tables_number     1

_symmetry_equiv_pos_as_xyz 'x,y,z'

loop_
_atom_site_label
_atom_site_type_symbol
_atom_site_fract_x
_atom_site_fract_y
_atom_site_fract_z
_atom_site_charge
Ga       Ga     0.925680000000     0.074320000000     0.250000000000     3.6353     
Ga       Ga     0.148640000000     0.074320000000     0.250000000000     3.6353     
Ga       Ga     0.925680000000     0.851360000000     0.250000000000     3.6353     
Ga       Ga     0.074320000000     0.925680000000     0.750000000000     3.6353     
Ga       Ga     0.851360000000     0.925680000000     0.750000000000     3.6353     
Ga       Ga     0.074320000000     0.148640000000     0.750000000000     3.6353     
Ga       Ga     0.583250000000     0.166500000000     0.415090000000     3.6353     
Ga       Ga     0.583250000000     0.416740000000     0.415090000000     3.6353     
Ga       Ga     0.833490000000     0.416740000000     0.415090000000     3.6353     
Ga       Ga     0.416750000000     0.833500000000     0.915090000000     3.6353     
Ga       Ga     0.416750000000     0.583260000000     0.915090000000     3.6353     
Ga       Ga     0.166510000000     0.583260000000     0.915090000000     3.6353     
Ga       Ga     0.416750000000     0.833500000000     0.584910000000     3.6353     
Ga       Ga     0.166510000000     0.583260000000     0.584910000000     3.6353     
Ga       Ga     0.416750000000     0.583260000000     0.584910000000     3.6353     
Ga       Ga     0.583250000000     0.166500000000     0.084910000000     3.6353     
Ga       Ga     0.833490000000     0.416740000000     0.084910000000     3.6353     
Ga       Ga     0.583250000000     0.416740000000     0.084910000000     3.6353     
Ga       Ga     0.500000000000     0.000000000000     0.500000000000     3.6353     
Ga       Ga     0.500000000000     0.500000000000     0.500000000000     3.6353     
Ga       Ga     0.000000000000     0.500000000000     0.500000000000     3.6353     
Ga       Ga     0.500000000000     0.000000000000     0.000000000000     3.6353     
Ga       Ga     0.500000000000     0.500000000000     0.000000000000     3.6353     
Ga       Ga     0.000000000000     0.500000000000     0.000000000000     3.6353     
H        H      0.723400000000     0.000000000000     0.355200000000    -0.119832   
H        H      0.276600000000     0.276600000000     0.355200000000    -0.119832   
H        H      0.000000000000     0.723400000000     0.355200000000    -0.119832   
H        H      0.276600000000     0.000000000000     0.855200000000    -0.119832   
H        H      0.723400000000     0.723400000000     0.855200000000    -0.119832   
H        H      0.000000000000     0.276600000000     0.855200000000    -0.119832   
H        H      0.723400000000     0.000000000000     0.644800000000    -0.119832   
H        H      0.000000000000     0.723400000000     0.644800000000    -0.119832   
H        H      0.276600000000     0.276600000000     0.644800000000    -0.119832   
H        H      0.276600000000     0.000000000000     0.144800000000    -0.119832   
H        H      0.000000000000     0.276600000000     0.144800000000    -0.119832   
H        H      0.723400000000     0.723400000000     0.144800000000    -0.119832   
H        H      0.276600000000     0.000000000000     0.644800000000    -0.119832   
H        H      0.723400000000     0.723400000000     0.644800000000    -0.119832   
H        H      0.000000000000     0.276600000000     0.644800000000    -0.119832   
H        H      0.723400000000     0.000000000000     0.144800000000    -0.119832   
H        H      0.276600000000     0.276600000000     0.144800000000    -0.119832   
H        H      0.000000000000     0.723400000000     0.144800000000    -0.119832   
H        H      0.276600000000     0.000000000000     0.355200000000    -0.119832   
H        H      0.000000000000     0.276600000000     0.355200000000    -0.119832   
H        H      0.723400000000     0.723400000000     0.355200000000    -0.119832   
H        H      0.723400000000     0.000000000000     0.855200000000    -0.119832   
H        H      0.000000000000     0.723400000000     0.855200000000    -0.119832   
H        H      0.276600000000     0.276600000000     0.855200000000    -0.119832   
H        H      0.574900000000     0.787450000000     0.447700000000    -0.119832   
H        H      0.212550000000     0.425100000000     0.447700000000    -0.119832   
H        H      0.212550000000     0.787450000000     0.447700000000    -0.119832   
H        H      0.425100000000     0.212550000000     0.947700000000    -0.119832   
H        H      0.787450000000     0.574900000000     0.947700000000    -0.119832   
H        H      0.787450000000     0.212550000000     0.947700000000    -0.119832   
H        H      0.787450000000     0.212550000000     0.552300000000    -0.119832   
H        H      0.787450000000     0.574900000000     0.552300000000    -0.119832   
H        H      0.425100000000     0.212550000000     0.552300000000    -0.119832   
H        H      0.212550000000     0.787450000000     0.052300000000    -0.119832   
H        H      0.212550000000     0.425100000000     0.052300000000    -0.119832   
H        H      0.574900000000     0.787450000000     0.052300000000    -0.119832   
C        C      0.610500000000     0.975200000000     0.425000000000     0.260948   
C        C      0.704400000000     0.935100000000     0.367800000000     0.260948   
C        C      0.646000000000     0.905700000000     0.405100000000     0.260948   
C        C      0.364700000000     0.389500000000     0.425000000000     0.260948   
C        C      0.230700000000     0.295600000000     0.367800000000     0.260948   
C        C      0.259700000000     0.354000000000     0.405100000000     0.260948   
C        C      0.024800000000     0.635300000000     0.425000000000     0.260948   
C        C      0.064900000000     0.769300000000     0.367800000000     0.260948   
C        C      0.094300000000     0.740300000000     0.405100000000     0.260948   
C        C      0.389500000000     0.024800000000     0.925000000000     0.260948   
C        C      0.295600000000     0.064900000000     0.867800000000     0.260948   
C        C      0.354000000000     0.094300000000     0.905100000000     0.260948   
C        C      0.635300000000     0.610500000000     0.925000000000     0.260948   
C        C      0.769300000000     0.704400000000     0.867800000000     0.260948   
C        C      0.740300000000     0.646000000000     0.905100000000     0.260948   
C        C      0.975200000000     0.364700000000     0.925000000000     0.260948   
C        C      0.935100000000     0.230700000000     0.867800000000     0.260948   
C        C      0.905700000000     0.259700000000     0.905100000000     0.260948   
C        C      0.635300000000     0.024800000000     0.575000000000     0.260948   
C        C      0.769300000000     0.064900000000     0.632200000000     0.260948   
C        C      0.740300000000     0.094300000000     0.594900000000     0.260948   
C        C      0.975200000000     0.610500000000     0.575000000000     0.260948   
C        C      0.935100000000     0.704400000000     0.632200000000     0.260948   
C        C      0.905700000000     0.646000000000     0.594900000000     0.260948   
C        C      0.389500000000     0.364700000000     0.575000000000     0.260948   
C        C      0.295600000000     0.230700000000     0.632200000000     0.260948   
C        C      0.354000000000     0.259700000000     0.594900000000     0.260948   
C        C      0.364700000000     0.975200000000     0.075000000000     0.260948   
C        C      0.230700000000     0.935100000000     0.132200000000     0.260948   
C        C      0.259700000000     0.905700000000     0.094900000000     0.260948   
C        C      0.024800000000     0.389500000000     0.075000000000     0.260948   
C        C      0.064900000000     0.295600000000     0.132200000000     0.260948   
C        C      0.094300000000     0.354000000000     0.094900000000     0.260948   
C        C      0.610500000000     0.635300000000     0.075000000000     0.260948   
C        C      0.704400000000     0.769300000000     0.132200000000     0.260948   
C        C      0.646000000000     0.740300000000     0.094900000000     0.260948   
C        C      0.389500000000     0.024800000000     0.575000000000     0.260948   
C        C      0.295600000000     0.064900000000     0.632200000000     0.260948   
C        C      0.354000000000     0.094300000000     0.594900000000     0.260948   
C        C      0.635300000000     0.610500000000     0.575000000000     0.260948   
C        C      0.769300000000     0.704400000000     0.632200000000     0.260948   
C        C      0.740300000000     0.646000000000     0.594900000000     0.260948   
C        C      0.975200000000     0.364700000000     0.575000000000     0.260948   
C        C      0.935100000000     0.230700000000     0.632200000000     0.260948   
C        C      0.905700000000     0.259700000000     0.594900000000     0.260948   
C        C      0.610500000000     0.975200000000     0.075000000000     0.260948   
C        C      0.704400000000     0.935100000000     0.132200000000     0.260948   
C        C      0.646000000000     0.905700000000     0.094900000000     0.260948   
C        C      0.364700000000     0.389500000000     0.075000000000     0.260948   
C        C      0.230700000000     0.295600000000     0.132200000000     0.260948   
C        C      0.259700000000     0.354000000000     0.094900000000     0.260948   
C        C      0.024800000000     0.635300000000     0.075000000000     0.260948   
C        C      0.064900000000     0.769300000000     0.132200000000     0.260948   
C        C      0.094300000000     0.740300000000     0.094900000000     0.260948   
C        C      0.364700000000     0.975200000000     0.425000000000     0.260948   
C        C      0.230700000000     0.935100000000     0.367800000000     0.260948   
C        C      0.259700000000     0.905700000000     0.405100000000     0.260948   
C        C      0.024800000000     0.389500000000     0.425000000000     0.260948   
C        C      0.064900000000     0.295600000000     0.367800000000     0.260948   
C        C      0.094300000000     0.354000000000     0.405100000000     0.260948   
C        C      0.610500000000     0.635300000000     0.425000000000     0.260948   
C        C      0.704400000000     0.769300000000     0.367800000000     0.260948   
C        C      0.646000000000     0.740300000000     0.405100000000     0.260948   
C        C      0.635300000000     0.024800000000     0.925000000000     0.260948   
C        C      0.769300000000     0.064900000000     0.867800000000     0.260948   
C        C      0.740300000000     0.094300000000     0.905100000000     0.260948   
C        C      0.975200000000     0.610500000000     0.925000000000     0.260948   
C        C      0.935100000000     0.704400000000     0.867800000000     0.260948   
C        C      0.905700000000     0.646000000000     0.905100000000     0.260948   
C        C      0.389500000000     0.364700000000     0.925000000000     0.260948   
C        C      0.295600000000     0.230700000000     0.867800000000     0.260948   
C        C      0.354000000000     0.259700000000     0.905100000000     0.260948   
C        C      0.799500000000     0.899750000000     0.309500000000     0.260948   
C        C      0.734400000000     0.867200000000     0.349300000000     0.260948   
C        C      0.615600000000     0.807800000000     0.423300000000     0.260948   
C        C      0.100250000000     0.200500000000     0.309500000000     0.260948   
C        C      0.132800000000     0.265600000000     0.349300000000     0.260948   
C        C      0.192200000000     0.384400000000     0.423300000000     0.260948   
C        C      0.100250000000     0.899750000000     0.309500000000     0.260948   
C        C      0.132800000000     0.867200000000     0.349300000000     0.260948   
C        C      0.192200000000     0.807800000000     0.423300000000     0.260948   
C        C      0.200500000000     0.100250000000     0.809500000000     0.260948   
C        C      0.265600000000     0.132800000000     0.849300000000     0.260948   
C        C      0.384400000000     0.192200000000     0.923300000000     0.260948   
C        C      0.899750000000     0.799500000000     0.809500000000     0.260948   
C        C      0.867200000000     0.734400000000     0.849300000000     0.260948   
C        C      0.807800000000     0.615600000000     0.923300000000     0.260948   
C        C      0.899750000000     0.100250000000     0.809500000000     0.260948   
C        C      0.867200000000     0.132800000000     0.849300000000     0.260948   
C        C      0.807800000000     0.192200000000     0.923300000000     0.260948   
C        C      0.899750000000     0.100250000000     0.690500000000     0.260948   
C        C      0.867200000000     0.132800000000     0.650700000000     0.260948   
C        C      0.807800000000     0.192200000000     0.576700000000     0.260948   
C        C      0.899750000000     0.799500000000     0.690500000000     0.260948   
C        C      0.867200000000     0.734400000000     0.650700000000     0.260948   
C        C      0.807800000000     0.615600000000     0.576700000000     0.260948   
C        C      0.200500000000     0.100250000000     0.690500000000     0.260948   
C        C      0.265600000000     0.132800000000     0.650700000000     0.260948   
C        C      0.384400000000     0.192200000000     0.576700000000     0.260948   
C        C      0.100250000000     0.899750000000     0.190500000000     0.260948   
C        C      0.132800000000     0.867200000000     0.150700000000     0.260948   
C        C      0.192200000000     0.807800000000     0.076700000000     0.260948   
C        C      0.100250000000     0.200500000000     0.190500000000     0.260948   
C        C      0.132800000000     0.265600000000     0.150700000000     0.260948   
C        C      0.192200000000     0.384400000000     0.076700000000     0.260948   
C        C      0.799500000000     0.899750000000     0.190500000000     0.260948   
C        C      0.734400000000     0.867200000000     0.150700000000     0.260948   
C        C      0.615600000000     0.807800000000     0.076700000000     0.260948   
O        O      0.824700000000     0.989500000000     0.295120000000    -1.13383    
O        O      0.623300000000     0.055000000000     0.404550000000    -1.13383    
O        O      0.570800000000     0.948900000000     0.461100000000    -1.13383    
O        O      0.164800000000     0.175300000000     0.295120000000    -1.13383    
O        O      0.431700000000     0.376700000000     0.404550000000    -1.13383    
O        O      0.378100000000     0.429200000000     0.461100000000    -1.13383    
O        O      0.010500000000     0.835200000000     0.295120000000    -1.13383    
O        O      0.945000000000     0.568300000000     0.404550000000    -1.13383    
O        O      0.051100000000     0.621900000000     0.461100000000    -1.13383    
O        O      0.175300000000     0.010500000000     0.795120000000    -1.13383    
O        O      0.376700000000     0.945000000000     0.904550000000    -1.13383    
O        O      0.429200000000     0.051100000000     0.961100000000    -1.13383    
O        O      0.835200000000     0.824700000000     0.795120000000    -1.13383    
O        O      0.568300000000     0.623300000000     0.904550000000    -1.13383    
O        O      0.621900000000     0.570800000000     0.961100000000    -1.13383    
O        O      0.989500000000     0.164800000000     0.795120000000    -1.13383    
O        O      0.055000000000     0.431700000000     0.904550000000    -1.13383    
O        O      0.948900000000     0.378100000000     0.961100000000    -1.13383    
O        O      0.835200000000     0.010500000000     0.704880000000    -1.13383    
O        O      0.568300000000     0.945000000000     0.595450000000    -1.13383    
O        O      0.621900000000     0.051100000000     0.538900000000    -1.13383    
O        O      0.989500000000     0.824700000000     0.704880000000    -1.13383    
O        O      0.055000000000     0.623300000000     0.595450000000    -1.13383    
O        O      0.948900000000     0.570800000000     0.538900000000    -1.13383    
O        O      0.175300000000     0.164800000000     0.704880000000    -1.13383    
O        O      0.376700000000     0.431700000000     0.595450000000    -1.13383    
O        O      0.429200000000     0.378100000000     0.538900000000    -1.13383    
O        O      0.164800000000     0.989500000000     0.204880000000    -1.13383    
O        O      0.431700000000     0.055000000000     0.095450000000    -1.13383    
O        O      0.378100000000     0.948900000000     0.038900000000    -1.13383    
O        O      0.010500000000     0.175300000000     0.204880000000    -1.13383    
O        O      0.945000000000     0.376700000000     0.095450000000    -1.13383    
O        O      0.051100000000     0.429200000000     0.038900000000    -1.13383    
O        O      0.824700000000     0.835200000000     0.204880000000    -1.13383    
O        O      0.623300000000     0.568300000000     0.095450000000    -1.13383    
O        O      0.570800000000     0.621900000000     0.038900000000    -1.13383    
O        O      0.175300000000     0.010500000000     0.704880000000    -1.13383    
O        O      0.376700000000     0.945000000000     0.595450000000    -1.13383    
O        O      0.429200000000     0.051100000000     0.538900000000    -1.13383    
O        O      0.835200000000     0.824700000000     0.704880000000    -1.13383    
O        O      0.568300000000     0.623300000000     0.595450000000    -1.13383    
O        O      0.621900000000     0.570800000000     0.538900000000    -1.13383    
O        O      0.989500000000     0.164800000000     0.704880000000    -1.13383    
O        O      0.055000000000     0.431700000000     0.595450000000    -1.13383    
O        O      0.948900000000     0.378100000000     0.538900000000    -1.13383    
O        O      0.824700000000     0.989500000000     0.204880000000    -1.13383    
O        O      0.623300000000     0.055000000000     0.095450000000    -1.13383    
O        O      0.570800000000     0.948900000000     0.038900000000    -1.13383    
O        O      0.164800000000     0.175300000000     0.204880000000    -1.13383    
O        O      0.431700000000     0.376700000000     0.095450000000    -1.13383    
O        O      0.378100000000     0.429200000000     0.038900000000    -1.13383    
O        O      0.010500000000     0.835200000000     0.204880000000    -1.13383    
O        O      0.945000000000     0.568300000000     0.095450000000    -1.13383    
O        O      0.051100000000     0.621900000000     0.038900000000    -1.13383    
O        O      0.164800000000     0.989500000000     0.295120000000    -1.13383    
O        O      0.431700000000     0.055000000000     0.404550000000    -1.13383    
O        O      0.378100000000     0.948900000000     0.461100000000    -1.13383    
O        O      0.010500000000     0.175300000000     0.295120000000    -1.13383    
O        O      0.945000000000     0.376700000000     0.404550000000    -1.13383    
O        O      0.051100000000     0.429200000000     0.461100000000    -1.13383    
O        O      0.824700000000     0.835200000000     0.295120000000    -1.13383    
O        O      0.623300000000     0.568300000000     0.404550000000    -1.13383    
O        O      0.570800000000     0.621900000000     0.461100000000    -1.13383    
O        O      0.835200000000     0.010500000000     0.795120000000    -1.13383    
O        O      0.568300000000     0.945000000000     0.904550000000    -1.13383    
O        O      0.621900000000     0.051100000000     0.961100000000    -1.13383    
O        O      0.989500000000     0.824700000000     0.795120000000    -1.13383    
O        O      0.055000000000     0.623300000000     0.904550000000    -1.13383    
O        O      0.948900000000     0.570800000000     0.961100000000    -1.13383    
O        O      0.175300000000     0.164800000000     0.795120000000    -1.13383    
O        O      0.376700000000     0.431700000000     0.904550000000    -1.13383    
O        O      0.429200000000     0.378100000000     0.961100000000    -1.13383    
O        O      0.568600000000     0.137200000000     0.474500000000    -1.13383    
O        O      0.568600000000     0.431400000000     0.474500000000    -1.13383    
O        O      0.862800000000     0.431400000000     0.474500000000    -1.13383    
O        O      0.431400000000     0.862800000000     0.974500000000    -1.13383    
O        O      0.431400000000     0.568600000000     0.974500000000    -1.13383    
O        O      0.137200000000     0.568600000000     0.974500000000    -1.13383    
O        O      0.431400000000     0.862800000000     0.525500000000    -1.13383    
O        O      0.137200000000     0.568600000000     0.525500000000    -1.13383    
O        O      0.431400000000     0.568600000000     0.525500000000    -1.13383    
O        O      0.568600000000     0.137200000000     0.025500000000    -1.13383    
O        O      0.862800000000     0.431400000000     0.025500000000    -1.13383    
O        O      0.568600000000     0.431400000000     0.025500000000    -1.13383    
O        O      0.000000000000     0.000000000000     0.250000000000    -1.13383    
O        O      0.000000000000     0.000000000000     0.750000000000    -1.13383    
O        O      0.536000000000     0.268000000000     0.418600000000    -1.13383    
O        O      0.732000000000     0.464000000000     0.418600000000    -1.13383    
O        O      0.732000000000     0.268000000000     0.418600000000    -1.13383    
O        O      0.464000000000     0.732000000000     0.918600000000    -1.13383    
O        O      0.268000000000     0.536000000000     0.918600000000    -1.13383    
O        O      0.268000000000     0.732000000000     0.918600000000    -1.13383    
O        O      0.268000000000     0.732000000000     0.581400000000    -1.13383    
O        O      0.268000000000     0.536000000000     0.581400000000    -1.13383    
O        O      0.464000000000     0.732000000000     0.581400000000    -1.13383    
O        O      0.732000000000     0.268000000000     0.081400000000    -1.13383    
O        O      0.732000000000     0.464000000000     0.081400000000    -1.13383    
O        O      0.536000000000     0.268000000000     0.081400000000    -1.13383    


