data_HOWPUF_original

_audit_creation_method RASPA-1.0
_audit_creation_date 2022-1-30
_audit_author_name 'Felipe Lopes de Oliveira <felipe.lopes.oliveira@ibm.com>'

_cell_length_a    12.125
_cell_length_b    13.8332
_cell_length_c    21.6436
_cell_angle_alpha 90
_cell_angle_beta  90
_cell_angle_gamma 90
_cell_volume      3630.23

_symmetry_cell_setting          triclinic
_symmetry_space_group_name_Hall 'P 1'
_symmetry_space_group_name_H-M  'P 1'
_symmetry_Int_Tables_number     1

_symmetry_equiv_pos_as_xyz 'x,y,z'

loop_
_atom_site_label
_atom_site_type_symbol
_atom_site_fract_x
_atom_site_fract_y
_atom_site_fract_z
_atom_site_charge
Zn       Zn     0.248460000000     0.925140000000     0.244060000000     0.39077    
Zn       Zn     0.233790000000     0.432340000000     0.125790000000     0.39077    
Zn       Zn     0.248460000000     0.074860000000     0.755940000000     0.39077    
Zn       Zn     0.233790000000     0.567660000000     0.874210000000     0.39077    
Zn       Zn     0.751540000000     0.574860000000     0.744060000000     0.39077    
Zn       Zn     0.766210000000     0.067660000000     0.625790000000     0.39077    
Zn       Zn     0.751540000000     0.425140000000     0.255940000000     0.39077    
Zn       Zn     0.766210000000     0.932340000000     0.374210000000     0.39077    
H        H      0.231000000000     0.718900000000     0.210800000000     0.0541479  
H        H      0.943000000000     0.718200000000     0.344400000000     0.0541479  
H        H      0.041200000000     0.857200000000     0.323500000000     0.0541479  
H        H      0.251500000000     0.129800000000     0.192000000000     0.0541479  
H        H      0.608300000000     0.113600000000     0.255000000000     0.0541479  
H        H      0.493500000000     0.985600000000     0.265200000000     0.0541479  
H        H      0.371500000000     0.604300000000     0.085500000000     0.0541479  
H        H      0.463300000000     0.530400000000     0.105100000000     0.0541479  
H        H      0.600300000000     0.518500000000     0.965800000000     0.0541479  
H        H      0.372200000000     0.332100000000     0.018800000000     0.0541479  
H        H      0.463600000000     0.364200000000     0.066000000000     0.0541479  
H        H      0.230500000000     0.553300000000     0.012200000000     0.0541479  
H        H      0.231000000000     0.281100000000     0.789200000000     0.0541479  
H        H      0.943000000000     0.281800000000     0.655600000000     0.0541479  
H        H      0.041200000000     0.142800000000     0.676500000000     0.0541479  
H        H      0.251500000000     0.870200000000     0.808000000000     0.0541479  
H        H      0.608300000000     0.886400000000     0.745000000000     0.0541479  
H        H      0.493500000000     0.014400000000     0.734800000000     0.0541479  
H        H      0.371500000000     0.395700000000     0.914500000000     0.0541479  
H        H      0.463300000000     0.469600000000     0.894900000000     0.0541479  
H        H      0.600300000000     0.481500000000     0.034200000000     0.0541479  
H        H      0.372200000000     0.667900000000     0.981200000000     0.0541479  
H        H      0.463600000000     0.635800000000     0.934000000000     0.0541479  
H        H      0.230500000000     0.446700000000     0.987800000000     0.0541479  
H        H      0.769000000000     0.781100000000     0.710800000000     0.0541479  
H        H      0.057000000000     0.781800000000     0.844400000000     0.0541479  
H        H      0.958800000000     0.642800000000     0.823500000000     0.0541479  
H        H      0.748500000000     0.370200000000     0.692000000000     0.0541479  
H        H      0.391700000000     0.386400000000     0.755000000000     0.0541479  
H        H      0.506500000000     0.514400000000     0.765200000000     0.0541479  
H        H      0.628500000000     0.895700000000     0.585500000000     0.0541479  
H        H      0.536700000000     0.969600000000     0.605100000000     0.0541479  
H        H      0.399700000000     0.981500000000     0.465800000000     0.0541479  
H        H      0.627800000000     0.167900000000     0.518800000000     0.0541479  
H        H      0.536400000000     0.135800000000     0.566000000000     0.0541479  
H        H      0.769500000000     0.946700000000     0.512200000000     0.0541479  
H        H      0.769000000000     0.218900000000     0.289200000000     0.0541479  
H        H      0.057000000000     0.218200000000     0.155600000000     0.0541479  
H        H      0.958800000000     0.357200000000     0.176500000000     0.0541479  
H        H      0.748500000000     0.629800000000     0.308000000000     0.0541479  
H        H      0.391700000000     0.613600000000     0.245000000000     0.0541479  
H        H      0.506500000000     0.485600000000     0.234800000000     0.0541479  
H        H      0.628500000000     0.104300000000     0.414500000000     0.0541479  
H        H      0.536700000000     0.030400000000     0.394900000000     0.0541479  
H        H      0.399700000000     0.018500000000     0.534200000000     0.0541479  
H        H      0.627800000000     0.832100000000     0.481200000000     0.0541479  
H        H      0.536400000000     0.864200000000     0.434000000000     0.0541479  
H        H      0.769500000000     0.053300000000     0.487800000000     0.0541479  
C        C      0.170700000000     0.718800000000     0.237400000000     0.0685378  
C        C      0.113700000000     0.632200000000     0.244400000000     0.0685378  
C        C      0.150300000000     0.546200000000     0.209500000000     0.0685378  
C        C      0.027100000000     0.631700000000     0.286200000000     0.0685378  
C        C      0.047600000000     0.043400000000     0.201600000000     0.0685378  
C        C      0.000800000000     0.716600000000     0.316200000000     0.0685378  
C        C      0.061400000000     0.800100000000     0.303800000000     0.0685378  
C        C      0.324800000000     0.126500000000     0.204600000000     0.0685378  
C        C      0.390500000000     0.209200000000     0.197500000000     0.0685378  
C        C      0.337200000000     0.298400000000     0.172000000000     0.0685378  
C        C      0.499100000000     0.204800000000     0.215600000000     0.0685378  
C        C      0.421500000000     0.789300000000     0.294700000000     0.0685378  
C        C      0.535700000000     0.118700000000     0.241400000000     0.0685378  
C        C      0.466700000000     0.042000000000     0.247200000000     0.0685378  
C        C      0.416300000000     0.550700000000     0.071200000000     0.0685378  
C        C      0.417900000000     0.385900000000     0.031900000000     0.0685378  
C        C      0.170700000000     0.281200000000     0.762600000000     0.0685378  
C        C      0.113700000000     0.367800000000     0.755600000000     0.0685378  
C        C      0.150300000000     0.453800000000     0.790500000000     0.0685378  
C        C      0.027100000000     0.368300000000     0.713800000000     0.0685378  
C        C      0.047600000000     0.956600000000     0.798400000000     0.0685378  
C        C      0.000800000000     0.283400000000     0.683800000000     0.0685378  
C        C      0.061400000000     0.199900000000     0.696200000000     0.0685378  
C        C      0.324800000000     0.873500000000     0.795400000000     0.0685378  
C        C      0.390500000000     0.790800000000     0.802500000000     0.0685378  
C        C      0.337200000000     0.701600000000     0.828000000000     0.0685378  
C        C      0.499100000000     0.795200000000     0.784400000000     0.0685378  
C        C      0.421500000000     0.210700000000     0.705300000000     0.0685378  
C        C      0.535700000000     0.881300000000     0.758600000000     0.0685378  
C        C      0.466700000000     0.958000000000     0.752800000000     0.0685378  
C        C      0.416300000000     0.449300000000     0.928800000000     0.0685378  
C        C      0.417900000000     0.614100000000     0.968100000000     0.0685378  
C        C      0.829300000000     0.781200000000     0.737400000000     0.0685378  
C        C      0.886300000000     0.867800000000     0.744400000000     0.0685378  
C        C      0.849700000000     0.953800000000     0.709500000000     0.0685378  
C        C      0.972900000000     0.868300000000     0.786200000000     0.0685378  
C        C      0.952400000000     0.456600000000     0.701600000000     0.0685378  
C        C      0.999200000000     0.783400000000     0.816200000000     0.0685378  
C        C      0.938600000000     0.699900000000     0.803800000000     0.0685378  
C        C      0.675200000000     0.373500000000     0.704600000000     0.0685378  
C        C      0.609500000000     0.290800000000     0.697500000000     0.0685378  
C        C      0.662800000000     0.201600000000     0.672000000000     0.0685378  
C        C      0.500900000000     0.295200000000     0.715600000000     0.0685378  
C        C      0.578500000000     0.710700000000     0.794700000000     0.0685378  
C        C      0.464300000000     0.381300000000     0.741400000000     0.0685378  
C        C      0.533300000000     0.458000000000     0.747200000000     0.0685378  
C        C      0.583700000000     0.949300000000     0.571200000000     0.0685378  
C        C      0.582100000000     0.114100000000     0.531900000000     0.0685378  
C        C      0.829300000000     0.218800000000     0.262600000000     0.0685378  
C        C      0.886300000000     0.132200000000     0.255600000000     0.0685378  
C        C      0.849700000000     0.046200000000     0.290500000000     0.0685378  
C        C      0.972900000000     0.131700000000     0.213800000000     0.0685378  
C        C      0.952400000000     0.543400000000     0.298400000000     0.0685378  
C        C      0.999200000000     0.216600000000     0.183800000000     0.0685378  
C        C      0.938600000000     0.300100000000     0.196200000000     0.0685378  
C        C      0.675200000000     0.626500000000     0.295400000000     0.0685378  
C        C      0.609500000000     0.709200000000     0.302500000000     0.0685378  
C        C      0.662800000000     0.798400000000     0.328000000000     0.0685378  
C        C      0.500900000000     0.704800000000     0.284400000000     0.0685378  
C        C      0.578500000000     0.289300000000     0.205300000000     0.0685378  
C        C      0.464300000000     0.618700000000     0.258600000000     0.0685378  
C        C      0.533300000000     0.542000000000     0.252800000000     0.0685378  
C        C      0.583700000000     0.050700000000     0.428800000000     0.0685378  
C        C      0.582100000000     0.885900000000     0.468100000000     0.0685378  
C        C      0.553100000000     0.500000000000     0.000000000000     0.0685378  
C        C      0.277600000000     0.500000000000     0.000000000000     0.0685378  
C        C      0.446900000000     0.000000000000     0.500000000000     0.0685378  
C        C      0.722400000000     0.000000000000     0.500000000000     0.0685378  
N        N      0.360800000000     0.044100000000     0.228000000000    -0.127752   
N        N      0.146100000000     0.801600000000     0.265500000000    -0.127752   
N        N      0.344300000000     0.470200000000     0.053200000000    -0.127752   
N        N      0.486600000000     0.583400000000     0.018400000000    -0.127752   
N        N      0.360800000000     0.955900000000     0.772000000000    -0.127752   
N        N      0.146100000000     0.198400000000     0.734500000000    -0.127752   
N        N      0.344300000000     0.529800000000     0.946800000000    -0.127752   
N        N      0.486600000000     0.416600000000     0.981600000000    -0.127752   
N        N      0.639200000000     0.455900000000     0.728000000000    -0.127752   
N        N      0.853900000000     0.698400000000     0.765500000000    -0.127752   
N        N      0.655700000000     0.029800000000     0.553200000000    -0.127752   
N        N      0.513400000000     0.916600000000     0.518400000000    -0.127752   
N        N      0.639200000000     0.544100000000     0.272000000000    -0.127752   
N        N      0.853900000000     0.301600000000     0.234500000000    -0.127752   
N        N      0.655700000000     0.970200000000     0.446800000000    -0.127752   
N        N      0.513400000000     0.083400000000     0.481600000000    -0.127752   
O        O      0.212100000000     0.563500000000     0.162400000000    -0.260681   
O        O      0.121900000000     0.464200000000     0.224000000000    -0.260681   
O        O      0.112600000000     0.021800000000     0.244200000000    -0.260681   
O        O      0.039100000000     0.006400000000     0.150000000000    -0.260681   
O        O      0.254400000000     0.288400000000     0.136900000000    -0.260681   
O        O      0.371900000000     0.379900000000     0.186900000000    -0.260681   
O        O      0.383000000000     0.828000000000     0.246610000000    -0.260681   
O        O      0.400100000000     0.809300000000     0.348900000000    -0.260681   
O        O      0.212100000000     0.436500000000     0.837600000000    -0.260681   
O        O      0.121900000000     0.535800000000     0.776000000000    -0.260681   
O        O      0.112600000000     0.978200000000     0.755800000000    -0.260681   
O        O      0.039100000000     0.993600000000     0.850000000000    -0.260681   
O        O      0.254400000000     0.711600000000     0.863100000000    -0.260681   
O        O      0.371900000000     0.620100000000     0.813100000000    -0.260681   
O        O      0.383000000000     0.172000000000     0.753390000000    -0.260681   
O        O      0.400100000000     0.190700000000     0.651100000000    -0.260681   
O        O      0.787900000000     0.936500000000     0.662400000000    -0.260681   
O        O      0.878100000000     0.035800000000     0.724000000000    -0.260681   
O        O      0.887400000000     0.478200000000     0.744200000000    -0.260681   
O        O      0.960900000000     0.493600000000     0.650000000000    -0.260681   
O        O      0.745600000000     0.211600000000     0.636900000000    -0.260681   
O        O      0.628100000000     0.120100000000     0.686900000000    -0.260681   
O        O      0.617000000000     0.672000000000     0.746610000000    -0.260681   
O        O      0.599900000000     0.690700000000     0.848900000000    -0.260681   
O        O      0.787900000000     0.063500000000     0.337600000000    -0.260681   
O        O      0.878100000000     0.964200000000     0.276000000000    -0.260681   
O        O      0.887400000000     0.521800000000     0.255800000000    -0.260681   
O        O      0.960900000000     0.506400000000     0.350000000000    -0.260681   
O        O      0.745600000000     0.788400000000     0.363100000000    -0.260681   
O        O      0.628100000000     0.879900000000     0.313100000000    -0.260681   
O        O      0.617000000000     0.328000000000     0.253390000000    -0.260681   
O        O      0.599900000000     0.309300000000     0.151100000000    -0.260681   


