data_HUTZEB_original

_audit_creation_method RASPA-1.0
_audit_creation_date 2022-1-31
_audit_author_name 'Felipe Lopes de Oliveira <felipe.lopes.oliveira@ibm.com>'

_cell_length_a    8.7586
_cell_length_b    10.156
_cell_length_c    19.476
_cell_angle_alpha 90
_cell_angle_beta  90
_cell_angle_gamma 100.22
_cell_volume      1704.95

_symmetry_cell_setting          triclinic
_symmetry_space_group_name_Hall 'P 1'
_symmetry_space_group_name_H-M  'P 1'
_symmetry_Int_Tables_number     1

_symmetry_equiv_pos_as_xyz 'x,y,z'

loop_
_atom_site_label
_atom_site_type_symbol
_atom_site_fract_x
_atom_site_fract_y
_atom_site_fract_z
_atom_site_charge
Na       Na     0.891240000000     0.609870000000     0.469680000000     2.46252    
Na       Na     0.108760000000     0.890130000000     0.969680000000     2.46252    
Na       Na     0.108760000000     0.390130000000     0.530320000000     2.46252    
Na       Na     0.891240000000     0.109870000000     0.030320000000     2.46252    
Zn       Zn     0.637300000000     0.524950000000     0.601810000000     0.472102   
Zn       Zn     0.362700000000     0.975050000000     0.101810000000     0.472102   
Zn       Zn     0.362700000000     0.475050000000     0.398190000000     0.472102   
Zn       Zn     0.637300000000     0.024950000000     0.898190000000     0.472102   
H        H      0.750000000000     0.371000000000     0.532000000000     0.109585   
H        H      0.633000000000     0.402000000000     0.492000000000     0.109585   
H        H      0.915200000000     0.756900000000     0.744000000000     0.109585   
H        H      0.083500000000     0.862800000000     0.825300000000     0.109585   
H        H      0.439300000000     0.742000000000     0.729000000000     0.109585   
H        H      0.270800000000     0.635800000000     0.647100000000     0.109585   
H        H      0.376200000000     0.847700000000     0.578600000000     0.109585   
H        H      0.727100000000     0.965400000000     0.448500000000     0.109585   
H        H      0.250000000000     0.129000000000     0.032000000000     0.109585   
H        H      0.367000000000     0.098000000000     0.992000000000     0.109585   
H        H      0.084800000000     0.743100000000     0.244000000000     0.109585   
H        H      0.916500000000     0.637200000000     0.325300000000     0.109585   
H        H      0.560700000000     0.758000000000     0.229000000000     0.109585   
H        H      0.729200000000     0.864200000000     0.147100000000     0.109585   
H        H      0.623800000000     0.652300000000     0.078600000000     0.109585   
H        H      0.272900000000     0.534600000000     0.948500000000     0.109585   
H        H      0.250000000000     0.629000000000     0.468000000000     0.109585   
H        H      0.367000000000     0.598000000000     0.508000000000     0.109585   
H        H      0.084800000000     0.243100000000     0.256000000000     0.109585   
H        H      0.916500000000     0.137200000000     0.174700000000     0.109585   
H        H      0.560700000000     0.258000000000     0.271000000000     0.109585   
H        H      0.729200000000     0.364200000000     0.352900000000     0.109585   
H        H      0.623800000000     0.152300000000     0.421400000000     0.109585   
H        H      0.272900000000     0.034600000000     0.551500000000     0.109585   
H        H      0.750000000000     0.871000000000     0.968000000000     0.109585   
H        H      0.633000000000     0.902000000000     0.008000000000     0.109585   
H        H      0.915200000000     0.256900000000     0.756000000000     0.109585   
H        H      0.083500000000     0.362800000000     0.674700000000     0.109585   
H        H      0.439300000000     0.242000000000     0.771000000000     0.109585   
H        H      0.270800000000     0.135800000000     0.852900000000     0.109585   
H        H      0.376200000000     0.347700000000     0.921400000000     0.109585   
H        H      0.727100000000     0.465400000000     0.051500000000     0.109585   
C        C      0.962600000000     0.611300000000     0.635310000000     0.0726935  
C        C      0.074900000000     0.683300000000     0.687410000000     0.0726935  
C        C      0.020300000000     0.753000000000     0.741150000000     0.0726935  
C        C      0.120900000000     0.816000000000     0.789820000000     0.0726935  
C        C      0.278400000000     0.810500000000     0.786630000000     0.0726935  
C        C      0.333800000000     0.743900000000     0.732320000000     0.0726935  
C        C      0.232900000000     0.680600000000     0.683210000000     0.0726935  
C        C      0.383200000000     0.878700000000     0.842010000000     0.0726935  
C        C      0.633400000000     0.768000000000     0.534960000000     0.0726935  
C        C      0.562000000000     0.886700000000     0.516640000000     0.0726935  
C        C      0.426500000000     0.908900000000     0.546800000000     0.0726935  
C        C      0.635600000000     0.979000000000     0.469400000000     0.0726935  
C        C      0.037400000000     0.888700000000     0.135310000000     0.0726935  
C        C      0.925100000000     0.816700000000     0.187410000000     0.0726935  
C        C      0.979700000000     0.747000000000     0.241150000000     0.0726935  
C        C      0.879100000000     0.684000000000     0.289820000000     0.0726935  
C        C      0.721600000000     0.689500000000     0.286630000000     0.0726935  
C        C      0.666200000000     0.756100000000     0.232320000000     0.0726935  
C        C      0.767100000000     0.819400000000     0.183210000000     0.0726935  
C        C      0.616800000000     0.621300000000     0.342010000000     0.0726935  
C        C      0.366600000000     0.732000000000     0.034960000000     0.0726935  
C        C      0.438000000000     0.613300000000     0.016640000000     0.0726935  
C        C      0.573500000000     0.591100000000     0.046800000000     0.0726935  
C        C      0.364400000000     0.521000000000     0.969400000000     0.0726935  
C        C      0.037400000000     0.388700000000     0.364690000000     0.0726935  
C        C      0.925100000000     0.316700000000     0.312590000000     0.0726935  
C        C      0.979700000000     0.247000000000     0.258850000000     0.0726935  
C        C      0.879100000000     0.184000000000     0.210180000000     0.0726935  
C        C      0.721600000000     0.189500000000     0.213370000000     0.0726935  
C        C      0.666200000000     0.256100000000     0.267680000000     0.0726935  
C        C      0.767100000000     0.319400000000     0.316790000000     0.0726935  
C        C      0.616800000000     0.121300000000     0.157990000000     0.0726935  
C        C      0.366600000000     0.232000000000     0.465040000000     0.0726935  
C        C      0.438000000000     0.113300000000     0.483360000000     0.0726935  
C        C      0.573500000000     0.091100000000     0.453200000000     0.0726935  
C        C      0.364400000000     0.021000000000     0.530600000000     0.0726935  
C        C      0.962600000000     0.111300000000     0.864690000000     0.0726935  
C        C      0.074900000000     0.183300000000     0.812590000000     0.0726935  
C        C      0.020300000000     0.253000000000     0.758850000000     0.0726935  
C        C      0.120900000000     0.316000000000     0.710180000000     0.0726935  
C        C      0.278400000000     0.310500000000     0.713370000000     0.0726935  
C        C      0.333800000000     0.243900000000     0.767680000000     0.0726935  
C        C      0.232900000000     0.180600000000     0.816790000000     0.0726935  
C        C      0.383200000000     0.378700000000     0.657990000000     0.0726935  
C        C      0.633400000000     0.268000000000     0.965040000000     0.0726935  
C        C      0.562000000000     0.386700000000     0.983360000000     0.0726935  
C        C      0.426500000000     0.408900000000     0.953200000000     0.0726935  
C        C      0.635600000000     0.479000000000     0.030600000000     0.0726935  
O        O      0.010100000000     0.570000000000     0.581150000000    -0.66909    
O        O      0.821200000000     0.599200000000     0.653180000000    -0.66909    
O        O      0.527600000000     0.908500000000     0.827530000000    -0.66909    
O        O      0.329100000000     0.905400000000     0.897280000000    -0.66909    
O        O      0.770000000000     0.767400000000     0.522270000000    -0.66909    
O        O      0.542100000000     0.670100000000     0.564900000000    -0.66909    
O        O      0.698800000000     0.424700000000     0.521550000000    -0.66909    
O        O      0.989900000000     0.930000000000     0.081150000000    -0.66909    
O        O      0.178800000000     0.900800000000     0.153180000000    -0.66909    
O        O      0.472400000000     0.591500000000     0.327530000000    -0.66909    
O        O      0.670900000000     0.594600000000     0.397280000000    -0.66909    
O        O      0.230000000000     0.732600000000     0.022270000000    -0.66909    
O        O      0.457900000000     0.829900000000     0.064900000000    -0.66909    
O        O      0.301200000000     0.075300000000     0.021550000000    -0.66909    
O        O      0.989900000000     0.430000000000     0.418850000000    -0.66909    
O        O      0.178800000000     0.400800000000     0.346820000000    -0.66909    
O        O      0.472400000000     0.091500000000     0.172470000000    -0.66909    
O        O      0.670900000000     0.094600000000     0.102720000000    -0.66909    
O        O      0.230000000000     0.232600000000     0.477730000000    -0.66909    
O        O      0.457900000000     0.329900000000     0.435100000000    -0.66909    
O        O      0.301200000000     0.575300000000     0.478450000000    -0.66909    
O        O      0.010100000000     0.070000000000     0.918850000000    -0.66909    
O        O      0.821200000000     0.099200000000     0.846820000000    -0.66909    
O        O      0.527600000000     0.408500000000     0.672470000000    -0.66909    
O        O      0.329100000000     0.405400000000     0.602720000000    -0.66909    
O        O      0.770000000000     0.267400000000     0.977730000000    -0.66909    
O        O      0.542100000000     0.170100000000     0.935100000000    -0.66909    
O        O      0.698800000000     0.924700000000     0.978450000000    -0.66909    


