data_IBICIH_original

_audit_creation_method RASPA-1.0
_audit_creation_date 2022-1-31
_audit_author_name 'Felipe Lopes de Oliveira <felipe.lopes.oliveira@ibm.com>'

_cell_length_a    10.585
_cell_length_b    17.703
_cell_length_c    17.703
_cell_angle_alpha 120
_cell_angle_beta  90
_cell_angle_gamma 90
_cell_volume      2872.87

_symmetry_cell_setting          triclinic
_symmetry_space_group_name_Hall 'P 1'
_symmetry_space_group_name_H-M  'P 1'
_symmetry_Int_Tables_number     1

_symmetry_equiv_pos_as_xyz 'x,y,z'

loop_
_atom_site_label
_atom_site_type_symbol
_atom_site_fract_x
_atom_site_fract_y
_atom_site_fract_z
_atom_site_charge
Zn       Zn     0.019460000000     0.540140000000     0.071090000000     0.425332   
Zn       Zn     0.352790000000     0.530950000000     0.459860000000     0.425332   
Zn       Zn     0.686130000000     0.928910000000     0.469050000000     0.425332   
Zn       Zn     0.519460000000     0.459860000000     0.928910000000     0.425332   
Zn       Zn     0.852790000000     0.469050000000     0.540140000000     0.425332   
Zn       Zn     0.186130000000     0.071090000000     0.530950000000     0.425332   
H        H      0.927700000000     0.469000000000     0.918700000000     0.224074   
H        H      0.054900000000     0.618200000000     0.954100000000     0.224074   
H        H      0.910800000000     0.616700000000     0.973800000000     0.224074   
H        H      0.775100000000     0.506500000000     0.834600000000     0.224074   
H        H      0.102500000000     0.613500000000     0.818200000000     0.224074   
H        H      0.051000000000     0.572500000000     0.677300000000     0.224074   
H        H      0.735700000000     0.466000000000     0.692000000000     0.224074   
H        H      0.129400000000     0.470200000000     0.845400000000     0.224074   
H        H      0.161300000000     0.324100000000     0.805200000000     0.224074   
H        H      0.907600000000     0.357000000000     0.782100000000     0.224074   
H        H      0.976400000000     0.267600000000     0.724900000000     0.224074   
H        H      0.019600000000     0.350400000000     0.721200000000     0.224074   
H        H      0.970800000000     0.346300000000     0.924000000000     0.224074   
H        H      0.111000000000     0.318900000000     0.926200000000     0.224074   
H        H      0.019300000000     0.254400000000     0.852500000000     0.224074   
H        H      0.261030000000     0.449700000000     0.531000000000     0.224074   
H        H      0.388230000000     0.335900000000     0.381800000000     0.224074   
H        H      0.244130000000     0.357100000000     0.383300000000     0.224074   
H        H      0.108430000000     0.328100000000     0.493500000000     0.224074   
H        H      0.435830000000     0.204700000000     0.386500000000     0.224074   
H        H      0.384330000000     0.104800000000     0.427500000000     0.224074   
H        H      0.069030000000     0.226000000000     0.534000000000     0.224074   
H        H      0.462730000000     0.375200000000     0.529800000000     0.224074   
H        H      0.494630000000     0.481100000000     0.675900000000     0.224074   
H        H      0.240930000000     0.425100000000     0.643000000000     0.224074   
H        H      0.309730000000     0.457300000000     0.732400000000     0.224074   
H        H      0.352930000000     0.370800000000     0.649600000000     0.224074   
H        H      0.304130000000     0.577700000000     0.653700000000     0.224074   
H        H      0.444330000000     0.607300000000     0.681100000000     0.224074   
H        H      0.352630000000     0.598100000000     0.745600000000     0.224074   
H        H      0.594370000000     0.081300000000     0.550300000000     0.224074   
H        H      0.721570000000     0.045900000000     0.664100000000     0.224074   
H        H      0.577470000000     0.026200000000     0.642900000000     0.224074   
H        H      0.441770000000     0.165400000000     0.671900000000     0.224074   
H        H      0.769170000000     0.181800000000     0.795300000000     0.224074   
H        H      0.717670000000     0.322700000000     0.895200000000     0.224074   
H        H      0.402370000000     0.308000000000     0.774000000000     0.224074   
H        H      0.796070000000     0.154600000000     0.624800000000     0.224074   
H        H      0.827970000000     0.194800000000     0.518900000000     0.224074   
H        H      0.574270000000     0.217900000000     0.574900000000     0.224074   
H        H      0.643070000000     0.275100000000     0.542700000000     0.224074   
H        H      0.686270000000     0.278800000000     0.629200000000     0.224074   
H        H      0.637470000000     0.076000000000     0.422300000000     0.224074   
H        H      0.777670000000     0.073800000000     0.392700000000     0.224074   
H        H      0.685970000000     0.147500000000     0.401900000000     0.224074   
H        H      0.427700000000     0.531000000000     0.081300000000     0.224074   
H        H      0.554900000000     0.381800000000     0.045900000000     0.224074   
H        H      0.410800000000     0.383300000000     0.026200000000     0.224074   
H        H      0.275100000000     0.493500000000     0.165400000000     0.224074   
H        H      0.602500000000     0.386500000000     0.181800000000     0.224074   
H        H      0.551000000000     0.427500000000     0.322700000000     0.224074   
H        H      0.235700000000     0.534000000000     0.308000000000     0.224074   
H        H      0.629400000000     0.529800000000     0.154600000000     0.224074   
H        H      0.661300000000     0.675900000000     0.194800000000     0.224074   
H        H      0.407600000000     0.643000000000     0.217900000000     0.224074   
H        H      0.476400000000     0.732400000000     0.275100000000     0.224074   
H        H      0.519600000000     0.649600000000     0.278800000000     0.224074   
H        H      0.470800000000     0.653700000000     0.076000000000     0.224074   
H        H      0.611000000000     0.681100000000     0.073800000000     0.224074   
H        H      0.519300000000     0.745600000000     0.147500000000     0.224074   
H        H      0.761030000000     0.550300000000     0.469000000000     0.224074   
H        H      0.888230000000     0.664100000000     0.618200000000     0.224074   
H        H      0.744130000000     0.642900000000     0.616700000000     0.224074   
H        H      0.608430000000     0.671900000000     0.506500000000     0.224074   
H        H      0.935830000000     0.795300000000     0.613500000000     0.224074   
H        H      0.884330000000     0.895200000000     0.572500000000     0.224074   
H        H      0.569030000000     0.774000000000     0.466000000000     0.224074   
H        H      0.962730000000     0.624800000000     0.470200000000     0.224074   
H        H      0.994630000000     0.518900000000     0.324100000000     0.224074   
H        H      0.740930000000     0.574900000000     0.357000000000     0.224074   
H        H      0.809730000000     0.542700000000     0.267600000000     0.224074   
H        H      0.852930000000     0.629200000000     0.350400000000     0.224074   
H        H      0.804130000000     0.422300000000     0.346300000000     0.224074   
H        H      0.944330000000     0.392700000000     0.318900000000     0.224074   
H        H      0.852630000000     0.401900000000     0.254400000000     0.224074   
H        H      0.094370000000     0.918700000000     0.449700000000     0.224074   
H        H      0.221570000000     0.954100000000     0.335900000000     0.224074   
H        H      0.077470000000     0.973800000000     0.357100000000     0.224074   
H        H      0.941770000000     0.834600000000     0.328100000000     0.224074   
H        H      0.269170000000     0.818200000000     0.204700000000     0.224074   
H        H      0.217670000000     0.677300000000     0.104800000000     0.224074   
H        H      0.902370000000     0.692000000000     0.226000000000     0.224074   
H        H      0.296070000000     0.845400000000     0.375200000000     0.224074   
H        H      0.327970000000     0.805200000000     0.481100000000     0.224074   
H        H      0.074270000000     0.782100000000     0.425100000000     0.224074   
H        H      0.143070000000     0.724900000000     0.457300000000     0.224074   
H        H      0.186270000000     0.721200000000     0.370800000000     0.224074   
H        H      0.137470000000     0.924000000000     0.577700000000     0.224074   
H        H      0.277670000000     0.926200000000     0.607300000000     0.224074   
H        H      0.185970000000     0.852500000000     0.598100000000     0.224074   
C        C      0.224800000000     0.468100000000     0.946200000000    -0.219983   
C        C      0.978700000000     0.583000000000     0.934500000000    -0.219983   
C        C      0.946800000000     0.564700000000     0.843900000000    -0.219983   
C        C      0.833100000000     0.519800000000     0.803500000000    -0.219983   
C        C      0.027400000000     0.583800000000     0.794400000000    -0.219983   
C        C      0.995500000000     0.558400000000     0.709100000000    -0.219983   
C        C      0.809700000000     0.496200000000     0.718000000000    -0.219983   
C        C      0.108500000000     0.450100000000     0.886400000000    -0.219983   
C        C      0.081300000000     0.352300000000     0.832800000000    -0.219983   
C        C      0.987400000000     0.329700000000     0.758200000000    -0.219983   
C        C      0.042000000000     0.314500000000     0.888900000000    -0.219983   
C        C      0.558130000000     0.478100000000     0.531900000000    -0.219983   
C        C      0.312030000000     0.351500000000     0.417000000000    -0.219983   
C        C      0.280130000000     0.279200000000     0.435300000000    -0.219983   
C        C      0.166430000000     0.283700000000     0.480200000000    -0.219983   
C        C      0.360730000000     0.210600000000     0.416200000000    -0.219983   
C        C      0.328830000000     0.150700000000     0.441600000000    -0.219983   
C        C      0.143030000000     0.221800000000     0.503800000000    -0.219983   
C        C      0.441830000000     0.436300000000     0.549900000000    -0.219983   
C        C      0.414630000000     0.480500000000     0.647700000000    -0.219983   
C        C      0.320730000000     0.428500000000     0.670300000000    -0.219983   
C        C      0.375330000000     0.574400000000     0.685500000000    -0.219983   
C        C      0.891470000000     0.053800000000     0.521900000000    -0.219983   
C        C      0.645370000000     0.065500000000     0.648500000000    -0.219983   
C        C      0.613470000000     0.156100000000     0.720800000000    -0.219983   
C        C      0.499770000000     0.196500000000     0.716300000000    -0.219983   
C        C      0.694070000000     0.205600000000     0.789400000000    -0.219983   
C        C      0.662170000000     0.290900000000     0.849300000000    -0.219983   
C        C      0.476370000000     0.282000000000     0.778200000000    -0.219983   
C        C      0.775170000000     0.113600000000     0.563700000000    -0.219983   
C        C      0.747970000000     0.167200000000     0.519500000000    -0.219983   
C        C      0.654070000000     0.241800000000     0.571500000000    -0.219983   
C        C      0.708670000000     0.111100000000     0.425600000000    -0.219983   
C        C      0.724800000000     0.531900000000     0.053800000000    -0.219983   
C        C      0.478700000000     0.417000000000     0.065500000000    -0.219983   
C        C      0.446800000000     0.435300000000     0.156100000000    -0.219983   
C        C      0.333100000000     0.480200000000     0.196500000000    -0.219983   
C        C      0.527400000000     0.416200000000     0.205600000000    -0.219983   
C        C      0.495500000000     0.441600000000     0.290900000000    -0.219983   
C        C      0.309700000000     0.503800000000     0.282000000000    -0.219983   
C        C      0.608500000000     0.549900000000     0.113600000000    -0.219983   
C        C      0.581300000000     0.647700000000     0.167200000000    -0.219983   
C        C      0.487400000000     0.670300000000     0.241800000000    -0.219983   
C        C      0.542000000000     0.685500000000     0.111100000000    -0.219983   
C        C      0.058130000000     0.521900000000     0.468100000000    -0.219983   
C        C      0.812030000000     0.648500000000     0.583000000000    -0.219983   
C        C      0.780130000000     0.720800000000     0.564700000000    -0.219983   
C        C      0.666430000000     0.716300000000     0.519800000000    -0.219983   
C        C      0.860730000000     0.789400000000     0.583800000000    -0.219983   
C        C      0.828830000000     0.849300000000     0.558400000000    -0.219983   
C        C      0.643030000000     0.778200000000     0.496200000000    -0.219983   
C        C      0.941830000000     0.563700000000     0.450100000000    -0.219983   
C        C      0.914630000000     0.519500000000     0.352300000000    -0.219983   
C        C      0.820730000000     0.571500000000     0.329700000000    -0.219983   
C        C      0.875330000000     0.425600000000     0.314500000000    -0.219983   
C        C      0.391470000000     0.946200000000     0.478100000000    -0.219983   
C        C      0.145370000000     0.934500000000     0.351500000000    -0.219983   
C        C      0.113470000000     0.843900000000     0.279200000000    -0.219983   
C        C      0.999770000000     0.803500000000     0.283700000000    -0.219983   
C        C      0.194070000000     0.794400000000     0.210600000000    -0.219983   
C        C      0.162170000000     0.709100000000     0.150700000000    -0.219983   
C        C      0.976370000000     0.718000000000     0.221800000000    -0.219983   
C        C      0.275170000000     0.886400000000     0.436300000000    -0.219983   
C        C      0.247970000000     0.832800000000     0.480500000000    -0.219983   
C        C      0.154070000000     0.758200000000     0.428500000000    -0.219983   
C        C      0.208670000000     0.888900000000     0.574400000000    -0.219983   
N        N      0.891000000000     0.515200000000     0.669700000000    -0.137768   
N        N      0.998400000000     0.502600000000     0.939400000000    -0.137768   
N        N      0.224330000000     0.154500000000     0.484800000000    -0.137768   
N        N      0.331730000000     0.436800000000     0.497400000000    -0.137768   
N        N      0.557670000000     0.330300000000     0.845500000000    -0.137768   
N        N      0.665070000000     0.060600000000     0.563200000000    -0.137768   
N        N      0.391000000000     0.484800000000     0.330300000000    -0.137768   
N        N      0.498400000000     0.497400000000     0.060600000000    -0.137768   
N        N      0.724330000000     0.845500000000     0.515200000000    -0.137768   
N        N      0.831730000000     0.563200000000     0.502600000000    -0.137768   
N        N      0.057670000000     0.669700000000     0.154500000000    -0.137768   
N        N      0.165070000000     0.939400000000     0.436800000000    -0.137768   
Cl       Cl     0.020100000000     0.454400000000     0.131160000000    -0.423914   
Cl       Cl     0.353430000000     0.676760000000     0.545600000000    -0.423914   
Cl       Cl     0.686770000000     0.868840000000     0.323240000000    -0.423914   
Cl       Cl     0.520100000000     0.545600000000     0.868840000000    -0.423914   
Cl       Cl     0.853430000000     0.323240000000     0.454400000000    -0.423914   
Cl       Cl     0.186770000000     0.131160000000     0.676760000000    -0.423914   
O        O      0.325300000000     0.433800000000     0.906300000000    -0.333591   
O        O      0.213700000000     0.514900000000     0.026700000000    -0.333591   
O        O      0.658630000000     0.472500000000     0.566200000000    -0.333591   
O        O      0.547030000000     0.511800000000     0.485100000000    -0.333591   
O        O      0.991970000000     0.093700000000     0.527500000000    -0.333591   
O        O      0.880370000000     0.973300000000     0.488200000000    -0.333591   
O        O      0.825300000000     0.566200000000     0.093700000000    -0.333591   
O        O      0.713700000000     0.485100000000     0.973300000000    -0.333591   
O        O      0.158630000000     0.527500000000     0.433800000000    -0.333591   
O        O      0.047030000000     0.488200000000     0.514900000000    -0.333591   
O        O      0.491970000000     0.906300000000     0.472500000000    -0.333591   
O        O      0.380370000000     0.026700000000     0.511800000000    -0.333591   


