data_IBICAZ_original

_audit_creation_method RASPA-1.0
_audit_creation_date 2022-1-30
_audit_author_name 'Felipe Lopes de Oliveira <felipe.lopes.oliveira@ibm.com>'

_cell_length_a    10.5617
_cell_length_b    17.691
_cell_length_c    17.691
_cell_angle_alpha 120
_cell_angle_beta  90
_cell_angle_gamma 90
_cell_volume      2862.66

_symmetry_cell_setting          triclinic
_symmetry_space_group_name_Hall 'P 1'
_symmetry_space_group_name_H-M  'P 1'
_symmetry_Int_Tables_number     1

_symmetry_equiv_pos_as_xyz 'x,y,z'

loop_
_atom_site_label
_atom_site_type_symbol
_atom_site_fract_x
_atom_site_fract_y
_atom_site_fract_z
_atom_site_charge
Zn       Zn     0.882360000000     0.540390000000     0.071000000000     0.427137   
Zn       Zn     0.549030000000     0.530610000000     0.459610000000     0.427137   
Zn       Zn     0.215690000000     0.929000000000     0.469390000000     0.427137   
Zn       Zn     0.382360000000     0.459610000000     0.929000000000     0.427137   
Zn       Zn     0.049030000000     0.469390000000     0.540390000000     0.427137   
Zn       Zn     0.715690000000     0.071000000000     0.530610000000     0.427137   
H        H      0.974000000000     0.468900000000     0.918800000000     0.222003   
H        H      0.167400000000     0.467900000000     0.692200000000     0.222003   
H        H      0.849700000000     0.572500000000     0.677300000000     0.222003   
H        H      0.799500000000     0.614500000000     0.818600000000     0.222003   
H        H      0.126100000000     0.507200000000     0.834500000000     0.222003   
H        H      0.990800000000     0.617100000000     0.973500000000     0.222003   
H        H      0.846600000000     0.618400000000     0.953500000000     0.222003   
H        H      0.773100000000     0.470600000000     0.845600000000     0.222003   
H        H      0.739800000000     0.324400000000     0.805400000000     0.222003   
H        H      0.884500000000     0.254200000000     0.851100000000     0.222003   
H        H      0.792400000000     0.317600000000     0.925400000000     0.222003   
H        H      0.932300000000     0.346200000000     0.923400000000     0.222003   
H        H      0.997200000000     0.352400000000     0.783400000000     0.222003   
H        H      0.887900000000     0.353900000000     0.724100000000     0.222003   
H        H      0.921000000000     0.267000000000     0.723100000000     0.222003   
H        H      0.640670000000     0.449900000000     0.531100000000     0.222003   
H        H      0.834070000000     0.224300000000     0.532100000000     0.222003   
H        H      0.516370000000     0.104800000000     0.427500000000     0.222003   
H        H      0.466170000000     0.204100000000     0.385500000000     0.222003   
H        H      0.792770000000     0.327300000000     0.492800000000     0.222003   
H        H      0.657470000000     0.356400000000     0.382900000000     0.222003   
H        H      0.513270000000     0.335100000000     0.381600000000     0.222003   
H        H      0.439770000000     0.375000000000     0.529400000000     0.222003   
H        H      0.406470000000     0.481000000000     0.675600000000     0.222003   
H        H      0.551170000000     0.596900000000     0.745800000000     0.222003   
H        H      0.459070000000     0.607800000000     0.682400000000     0.222003   
H        H      0.598970000000     0.577200000000     0.653800000000     0.222003   
H        H      0.663870000000     0.431000000000     0.647600000000     0.222003   
H        H      0.554570000000     0.370200000000     0.646100000000     0.222003   
H        H      0.587670000000     0.456100000000     0.733000000000     0.222003   
H        H      0.307330000000     0.081200000000     0.550100000000     0.222003   
H        H      0.500730000000     0.307800000000     0.775700000000     0.222003   
H        H      0.183030000000     0.322700000000     0.895200000000     0.222003   
H        H      0.132830000000     0.181400000000     0.795900000000     0.222003   
H        H      0.459430000000     0.165500000000     0.672700000000     0.222003   
H        H      0.324130000000     0.026500000000     0.643600000000     0.222003   
H        H      0.179930000000     0.046500000000     0.664900000000     0.222003   
H        H      0.106430000000     0.154400000000     0.625000000000     0.222003   
H        H      0.073130000000     0.194600000000     0.519000000000     0.222003   
H        H      0.217830000000     0.148900000000     0.403100000000     0.222003   
H        H      0.125730000000     0.074600000000     0.392200000000     0.222003   
H        H      0.265630000000     0.076600000000     0.422800000000     0.222003   
H        H      0.330530000000     0.216600000000     0.569000000000     0.222003   
H        H      0.221230000000     0.275900000000     0.629800000000     0.222003   
H        H      0.254330000000     0.276900000000     0.543900000000     0.222003   
H        H      0.474000000000     0.531100000000     0.081200000000     0.222003   
H        H      0.667400000000     0.532100000000     0.307800000000     0.222003   
H        H      0.349700000000     0.427500000000     0.322700000000     0.222003   
H        H      0.299500000000     0.385500000000     0.181400000000     0.222003   
H        H      0.626100000000     0.492800000000     0.165500000000     0.222003   
H        H      0.490800000000     0.382900000000     0.026500000000     0.222003   
H        H      0.346600000000     0.381600000000     0.046500000000     0.222003   
H        H      0.273100000000     0.529400000000     0.154400000000     0.222003   
H        H      0.239800000000     0.675600000000     0.194600000000     0.222003   
H        H      0.384500000000     0.745800000000     0.148900000000     0.222003   
H        H      0.292400000000     0.682400000000     0.074600000000     0.222003   
H        H      0.432300000000     0.653800000000     0.076600000000     0.222003   
H        H      0.497200000000     0.647600000000     0.216600000000     0.222003   
H        H      0.387900000000     0.646100000000     0.275900000000     0.222003   
H        H      0.421000000000     0.733000000000     0.276900000000     0.222003   
H        H      0.140670000000     0.550100000000     0.468900000000     0.222003   
H        H      0.334070000000     0.775700000000     0.467900000000     0.222003   
H        H      0.016370000000     0.895200000000     0.572500000000     0.222003   
H        H      0.966170000000     0.795900000000     0.614500000000     0.222003   
H        H      0.292770000000     0.672700000000     0.507200000000     0.222003   
H        H      0.157470000000     0.643600000000     0.617100000000     0.222003   
H        H      0.013270000000     0.664900000000     0.618400000000     0.222003   
H        H      0.939770000000     0.625000000000     0.470600000000     0.222003   
H        H      0.906470000000     0.519000000000     0.324400000000     0.222003   
H        H      0.051170000000     0.403100000000     0.254200000000     0.222003   
H        H      0.959070000000     0.392200000000     0.317600000000     0.222003   
H        H      0.098970000000     0.422800000000     0.346200000000     0.222003   
H        H      0.163870000000     0.569000000000     0.352400000000     0.222003   
H        H      0.054570000000     0.629800000000     0.353900000000     0.222003   
H        H      0.087670000000     0.543900000000     0.267000000000     0.222003   
H        H      0.807330000000     0.918800000000     0.449900000000     0.222003   
H        H      0.000730000000     0.692200000000     0.224300000000     0.222003   
H        H      0.683030000000     0.677300000000     0.104800000000     0.222003   
H        H      0.632830000000     0.818600000000     0.204100000000     0.222003   
H        H      0.959430000000     0.834500000000     0.327300000000     0.222003   
H        H      0.824130000000     0.973500000000     0.356400000000     0.222003   
H        H      0.679930000000     0.953500000000     0.335100000000     0.222003   
H        H      0.606430000000     0.845600000000     0.375000000000     0.222003   
H        H      0.573130000000     0.805400000000     0.481000000000     0.222003   
H        H      0.717830000000     0.851100000000     0.596900000000     0.222003   
H        H      0.625730000000     0.925400000000     0.607800000000     0.222003   
H        H      0.765630000000     0.923400000000     0.577200000000     0.222003   
H        H      0.830530000000     0.783400000000     0.431000000000     0.222003   
H        H      0.721230000000     0.724100000000     0.370200000000     0.222003   
H        H      0.754330000000     0.723100000000     0.456100000000     0.222003   
C        C      0.092500000000     0.497100000000     0.717800000000    -0.21694    
C        C      0.905400000000     0.558700000000     0.709300000000    -0.21694    
C        C      0.874300000000     0.584200000000     0.794300000000    -0.21694    
C        C      0.955400000000     0.564400000000     0.843500000000    -0.21694    
C        C      0.068000000000     0.520500000000     0.803400000000    -0.21694    
C        C      0.923000000000     0.583300000000     0.934200000000    -0.21694    
C        C      0.676900000000     0.468100000000     0.945900000000    -0.21694    
C        C      0.793800000000     0.450510000000     0.886610000000    -0.21694    
C        C      0.820000000000     0.352600000000     0.833000000000    -0.21694    
C        C      0.861000000000     0.314200000000     0.888300000000    -0.21694    
C        C      0.915500000000     0.329300000000     0.759000000000    -0.21694    
C        C      0.759170000000     0.220700000000     0.502900000000    -0.21694    
C        C      0.572070000000     0.150600000000     0.441300000000    -0.21694    
C        C      0.540970000000     0.210100000000     0.415800000000    -0.21694    
C        C      0.622070000000     0.279100000000     0.435600000000    -0.21694    
C        C      0.734670000000     0.282900000000     0.479500000000    -0.21694    
C        C      0.589670000000     0.350900000000     0.416700000000    -0.21694    
C        C      0.343570000000     0.477800000000     0.531900000000    -0.21694    
C        C      0.460470000000     0.436100000000     0.549490000000    -0.21694    
C        C      0.486670000000     0.480400000000     0.647400000000    -0.21694    
C        C      0.527670000000     0.574100000000     0.685800000000    -0.21694    
C        C      0.582170000000     0.429700000000     0.670700000000    -0.21694    
C        C      0.425830000000     0.282200000000     0.779300000000    -0.21694    
C        C      0.238730000000     0.290700000000     0.849400000000    -0.21694    
C        C      0.207630000000     0.205700000000     0.789900000000    -0.21694    
C        C      0.288730000000     0.156500000000     0.720900000000    -0.21694    
C        C      0.401330000000     0.196600000000     0.717100000000    -0.21694    
C        C      0.256330000000     0.065800000000     0.649100000000    -0.21694    
C        C      0.010230000000     0.054100000000     0.522200000000    -0.21694    
C        C      0.127130000000     0.113390000000     0.563900000000    -0.21694    
C        C      0.153330000000     0.167000000000     0.519600000000    -0.21694    
C        C      0.194330000000     0.111700000000     0.425900000000    -0.21694    
C        C      0.248830000000     0.241000000000     0.570300000000    -0.21694    
C        C      0.592500000000     0.502900000000     0.282200000000    -0.21694    
C        C      0.405400000000     0.441300000000     0.290700000000    -0.21694    
C        C      0.374300000000     0.415800000000     0.205700000000    -0.21694    
C        C      0.455400000000     0.435600000000     0.156500000000    -0.21694    
C        C      0.568000000000     0.479500000000     0.196600000000    -0.21694    
C        C      0.423000000000     0.416700000000     0.065800000000    -0.21694    
C        C      0.176900000000     0.531900000000     0.054100000000    -0.21694    
C        C      0.293800000000     0.549490000000     0.113390000000    -0.21694    
C        C      0.320000000000     0.647400000000     0.167000000000    -0.21694    
C        C      0.361000000000     0.685800000000     0.111700000000    -0.21694    
C        C      0.415500000000     0.670700000000     0.241000000000    -0.21694    
C        C      0.259170000000     0.779300000000     0.497100000000    -0.21694    
C        C      0.072070000000     0.849400000000     0.558700000000    -0.21694    
C        C      0.040970000000     0.789900000000     0.584200000000    -0.21694    
C        C      0.122070000000     0.720900000000     0.564400000000    -0.21694    
C        C      0.234670000000     0.717100000000     0.520500000000    -0.21694    
C        C      0.089670000000     0.649100000000     0.583300000000    -0.21694    
C        C      0.843570000000     0.522200000000     0.468100000000    -0.21694    
C        C      0.960470000000     0.563900000000     0.450510000000    -0.21694    
C        C      0.986670000000     0.519600000000     0.352600000000    -0.21694    
C        C      0.027670000000     0.425900000000     0.314200000000    -0.21694    
C        C      0.082170000000     0.570300000000     0.329300000000    -0.21694    
C        C      0.925830000000     0.717800000000     0.220700000000    -0.21694    
C        C      0.738730000000     0.709300000000     0.150600000000    -0.21694    
C        C      0.707630000000     0.794300000000     0.210100000000    -0.21694    
C        C      0.788730000000     0.843500000000     0.279100000000    -0.21694    
C        C      0.901330000000     0.803400000000     0.282900000000    -0.21694    
C        C      0.756330000000     0.934200000000     0.350900000000    -0.21694    
C        C      0.510230000000     0.945900000000     0.477800000000    -0.21694    
C        C      0.627130000000     0.886610000000     0.436100000000    -0.21694    
C        C      0.653330000000     0.833000000000     0.480400000000    -0.21694    
C        C      0.694330000000     0.888300000000     0.574100000000    -0.21694    
C        C      0.748830000000     0.759000000000     0.429700000000    -0.21694    
N        N      0.010900000000     0.515200000000     0.670100000000    -0.13792    
N        N      0.903200000000     0.502470000000     0.939330000000    -0.13792    
N        N      0.677570000000     0.154900000000     0.484800000000    -0.13792    
N        N      0.569870000000     0.436860000000     0.497530000000    -0.13792    
N        N      0.344230000000     0.329900000000     0.845100000000    -0.13792    
N        N      0.236530000000     0.060670000000     0.563140000000    -0.13792    
N        N      0.510900000000     0.484800000000     0.329900000000    -0.13792    
N        N      0.403200000000     0.497530000000     0.060670000000    -0.13792    
N        N      0.177570000000     0.845100000000     0.515200000000    -0.13792    
N        N      0.069870000000     0.563140000000     0.502470000000    -0.13792    
N        N      0.844230000000     0.670100000000     0.154900000000    -0.13792    
N        N      0.736530000000     0.939330000000     0.436860000000    -0.13792    
Cl       Cl     0.881180000000     0.455090000000     0.131070000000    -0.425004   
Cl       Cl     0.547850000000     0.675980000000     0.544910000000    -0.425004   
Cl       Cl     0.214510000000     0.868930000000     0.324020000000    -0.425004   
Cl       Cl     0.381180000000     0.544910000000     0.868930000000    -0.425004   
Cl       Cl     0.047850000000     0.324020000000     0.455090000000    -0.425004   
Cl       Cl     0.714510000000     0.131070000000     0.675980000000    -0.425004   
O        O      0.688000000000     0.514910000000     0.026420000000    -0.334996   
O        O      0.576500000000     0.433610000000     0.906080000000    -0.334996   
O        O      0.354670000000     0.511510000000     0.485090000000    -0.334996   
O        O      0.243170000000     0.472470000000     0.566390000000    -0.334996   
O        O      0.021330000000     0.973580000000     0.488490000000    -0.334996   
O        O      0.909830000000     0.093920000000     0.527530000000    -0.334996   
O        O      0.188000000000     0.485090000000     0.973580000000    -0.334996   
O        O      0.076500000000     0.566390000000     0.093920000000    -0.334996   
O        O      0.854670000000     0.488490000000     0.514910000000    -0.334996   
O        O      0.743170000000     0.527530000000     0.433610000000    -0.334996   
O        O      0.521330000000     0.026420000000     0.511510000000    -0.334996   
O        O      0.409830000000     0.906080000000     0.472470000000    -0.334996   


