data_IBICON_original

_audit_creation_method RASPA-1.0
_audit_creation_date 2022-1-31
_audit_author_name 'Felipe Lopes de Oliveira <felipe.lopes.oliveira@ibm.com>'

_cell_length_a    10.4868
_cell_length_b    17.7786
_cell_length_c    17.7786
_cell_angle_alpha 120
_cell_angle_beta  90
_cell_angle_gamma 90
_cell_volume      2870.57

_symmetry_cell_setting          triclinic
_symmetry_space_group_name_Hall 'P 1'
_symmetry_space_group_name_H-M  'P 1'
_symmetry_Int_Tables_number     1

_symmetry_equiv_pos_as_xyz 'x,y,z'

loop_
_atom_site_label
_atom_site_type_symbol
_atom_site_fract_x
_atom_site_fract_y
_atom_site_fract_z
_atom_site_charge
Zn       Zn     0.922760000000     0.929570000000     0.472190000000     0.407235   
Zn       Zn     0.256090000000     0.542620000000     0.070430000000     0.407235   
Zn       Zn     0.589430000000     0.527810000000     0.457380000000     0.407235   
Zn       Zn     0.422760000000     0.070430000000     0.527810000000     0.407235   
Zn       Zn     0.756090000000     0.457380000000     0.929570000000     0.407235   
Zn       Zn     0.089430000000     0.472190000000     0.542620000000     0.407235   
H        H      0.831000000000     0.079600000000     0.553700000000     0.222212   
H        H      0.636300000000     0.302000000000     0.778900000000     0.222212   
H        H      0.957300000000     0.323600000000     0.896600000000     0.222212   
H        H      0.012200000000     0.182000000000     0.794600000000     0.222212   
H        H      0.679900000000     0.163600000000     0.677300000000     0.222212   
H        H      0.962700000000     0.048000000000     0.668800000000     0.222212   
H        H      0.817500000000     0.026900000000     0.648600000000     0.222212   
H        H      0.035400000000     0.153300000000     0.625600000000     0.222212   
H        H      0.062300000000     0.196300000000     0.521700000000     0.222212   
H        H      0.864900000000     0.080400000000     0.426700000000     0.222212   
H        H      0.007700000000     0.070100000000     0.397000000000     0.222212   
H        H      0.925400000000     0.146600000000     0.403100000000     0.222212   
H        H      0.873500000000     0.274000000000     0.547100000000     0.222212   
H        H      0.921800000000     0.278000000000     0.632500000000     0.222212   
H        H      0.808800000000     0.216200000000     0.579900000000     0.222212   
H        H      0.164330000000     0.474100000000     0.920400000000     0.222212   
H        H      0.969630000000     0.476900000000     0.698000000000     0.222212   
H        H      0.290630000000     0.573000000000     0.676400000000     0.222212   
H        H      0.345530000000     0.612600000000     0.818000000000     0.222212   
H        H      0.013230000000     0.513700000000     0.836400000000     0.222212   
H        H      0.296030000000     0.620800000000     0.952000000000     0.222212   
H        H      0.150830000000     0.621700000000     0.973100000000     0.222212   
H        H      0.368730000000     0.472300000000     0.846700000000     0.222212   
H        H      0.395630000000     0.325400000000     0.803700000000     0.222212   
H        H      0.198230000000     0.346300000000     0.919600000000     0.222212   
H        H      0.341030000000     0.326900000000     0.929900000000     0.222212   
H        H      0.258730000000     0.256500000000     0.853400000000     0.222212   
H        H      0.206830000000     0.273100000000     0.726000000000     0.222212   
H        H      0.255130000000     0.354500000000     0.722000000000     0.222212   
H        H      0.142130000000     0.363700000000     0.783800000000     0.222212   
H        H      0.497670000000     0.446300000000     0.525900000000     0.222212   
H        H      0.302970000000     0.221100000000     0.523100000000     0.222212   
H        H      0.623970000000     0.103400000000     0.427000000000     0.222212   
H        H      0.678870000000     0.205400000000     0.387400000000     0.222212   
H        H      0.346570000000     0.322700000000     0.486300000000     0.222212   
H        H      0.629370000000     0.331200000000     0.379200000000     0.222212   
H        H      0.484170000000     0.351400000000     0.378300000000     0.222212   
H        H      0.702070000000     0.374400000000     0.527700000000     0.222212   
H        H      0.728970000000     0.478300000000     0.674600000000     0.222212   
H        H      0.531570000000     0.573300000000     0.653700000000     0.222212   
H        H      0.674370000000     0.603000000000     0.673100000000     0.222212   
H        H      0.592070000000     0.596900000000     0.743500000000     0.222212   
H        H      0.540170000000     0.452900000000     0.726900000000     0.222212   
H        H      0.588470000000     0.367500000000     0.645500000000     0.222212   
H        H      0.475470000000     0.420100000000     0.636300000000     0.222212   
H        H      0.331000000000     0.920400000000     0.446300000000     0.222212   
H        H      0.136300000000     0.698000000000     0.221100000000     0.222212   
H        H      0.457300000000     0.676400000000     0.103400000000     0.222212   
H        H      0.512200000000     0.818000000000     0.205400000000     0.222212   
H        H      0.179900000000     0.836400000000     0.322700000000     0.222212   
H        H      0.462700000000     0.952000000000     0.331200000000     0.222212   
H        H      0.317500000000     0.973100000000     0.351400000000     0.222212   
H        H      0.535400000000     0.846700000000     0.374400000000     0.222212   
H        H      0.562300000000     0.803700000000     0.478300000000     0.222212   
H        H      0.364900000000     0.919600000000     0.573300000000     0.222212   
H        H      0.507700000000     0.929900000000     0.603000000000     0.222212   
H        H      0.425400000000     0.853400000000     0.596900000000     0.222212   
H        H      0.373500000000     0.726000000000     0.452900000000     0.222212   
H        H      0.421800000000     0.722000000000     0.367500000000     0.222212   
H        H      0.308800000000     0.783800000000     0.420100000000     0.222212   
H        H      0.664330000000     0.525900000000     0.079600000000     0.222212   
H        H      0.469630000000     0.523100000000     0.302000000000     0.222212   
H        H      0.790630000000     0.427000000000     0.323600000000     0.222212   
H        H      0.845530000000     0.387400000000     0.182000000000     0.222212   
H        H      0.513230000000     0.486300000000     0.163600000000     0.222212   
H        H      0.796030000000     0.379200000000     0.048000000000     0.222212   
H        H      0.650830000000     0.378300000000     0.026900000000     0.222212   
H        H      0.868730000000     0.527700000000     0.153300000000     0.222212   
H        H      0.895630000000     0.674600000000     0.196300000000     0.222212   
H        H      0.698230000000     0.653700000000     0.080400000000     0.222212   
H        H      0.841030000000     0.673100000000     0.070100000000     0.222212   
H        H      0.758730000000     0.743500000000     0.146600000000     0.222212   
H        H      0.706830000000     0.726900000000     0.274000000000     0.222212   
H        H      0.755130000000     0.645500000000     0.278000000000     0.222212   
H        H      0.642130000000     0.636300000000     0.216200000000     0.222212   
H        H      0.997670000000     0.553700000000     0.474100000000     0.222212   
H        H      0.802970000000     0.778900000000     0.476900000000     0.222212   
H        H      0.123970000000     0.896600000000     0.573000000000     0.222212   
H        H      0.178870000000     0.794600000000     0.612600000000     0.222212   
H        H      0.846570000000     0.677300000000     0.513700000000     0.222212   
H        H      0.129370000000     0.668800000000     0.620800000000     0.222212   
H        H      0.984170000000     0.648600000000     0.621700000000     0.222212   
H        H      0.202070000000     0.625600000000     0.472300000000     0.222212   
H        H      0.228970000000     0.521700000000     0.325400000000     0.222212   
H        H      0.031570000000     0.426700000000     0.346300000000     0.222212   
H        H      0.174370000000     0.397000000000     0.326900000000     0.222212   
H        H      0.092070000000     0.403100000000     0.256500000000     0.222212   
H        H      0.040170000000     0.547100000000     0.273100000000     0.222212   
H        H      0.088470000000     0.632500000000     0.354500000000     0.222212   
H        H      0.975470000000     0.579900000000     0.363700000000     0.222212   
C        C      0.713800000000     0.277900000000     0.781500000000    -0.218594   
C        C      0.902000000000     0.291200000000     0.850700000000    -0.218594   
C        C      0.935100000000     0.205400000000     0.790100000000    -0.218594   
C        C      0.851600000000     0.156700000000     0.724100000000    -0.218594   
C        C      0.738800000000     0.195100000000     0.721100000000    -0.218594   
C        C      0.884900000000     0.066300000000     0.653100000000    -0.218594   
C        C      0.128800000000     0.052700000000     0.521800000000    -0.218594   
C        C      0.012400000000     0.113000000000     0.564900000000    -0.218594   
C        C      0.982300000000     0.168300000000     0.522700000000    -0.218594   
C        C      0.941300000000     0.111100000000     0.428700000000    -0.218594   
C        C      0.887900000000     0.240800000000     0.575400000000    -0.218594   
C        C      0.047130000000     0.503600000000     0.722100000000    -0.218594   
C        C      0.235330000000     0.559500000000     0.708800000000    -0.218594   
C        C      0.268430000000     0.584700000000     0.794600000000    -0.218594   
C        C      0.184930000000     0.567400000000     0.843300000000    -0.218594   
C        C      0.072130000000     0.526000000000     0.804900000000    -0.218594   
C        C      0.218230000000     0.586800000000     0.933700000000    -0.218594   
C        C      0.462130000000     0.469100000000     0.947300000000    -0.218594   
C        C      0.345730000000     0.451900000000     0.887000000000    -0.218594   
C        C      0.315630000000     0.354400000000     0.831700000000    -0.218594   
C        C      0.274630000000     0.317600000000     0.888900000000    -0.218594   
C        C      0.221230000000     0.334600000000     0.759200000000    -0.218594   
C        C      0.380470000000     0.218500000000     0.496400000000    -0.218594   
C        C      0.568670000000     0.149300000000     0.440500000000    -0.218594   
C        C      0.601770000000     0.209900000000     0.415300000000    -0.218594   
C        C      0.518270000000     0.275900000000     0.432600000000    -0.218594   
C        C      0.405470000000     0.278900000000     0.474000000000    -0.218594   
C        C      0.551570000000     0.346900000000     0.413200000000    -0.218594   
C        C      0.795470000000     0.478200000000     0.530900000000    -0.218594   
C        C      0.679070000000     0.435100000000     0.548100000000    -0.218594   
C        C      0.648970000000     0.477300000000     0.645600000000    -0.218594   
C        C      0.607970000000     0.571300000000     0.682400000000    -0.218594   
C        C      0.554570000000     0.424600000000     0.665400000000    -0.218594   
C        C      0.213800000000     0.722100000000     0.218500000000    -0.218594   
C        C      0.402000000000     0.708800000000     0.149300000000    -0.218594   
C        C      0.435100000000     0.794600000000     0.209900000000    -0.218594   
C        C      0.351600000000     0.843300000000     0.275900000000    -0.218594   
C        C      0.238800000000     0.804900000000     0.278900000000    -0.218594   
C        C      0.384900000000     0.933700000000     0.346900000000    -0.218594   
C        C      0.628800000000     0.947300000000     0.478200000000    -0.218594   
C        C      0.512400000000     0.887000000000     0.435100000000    -0.218594   
C        C      0.482300000000     0.831700000000     0.477300000000    -0.218594   
C        C      0.441300000000     0.888900000000     0.571300000000    -0.218594   
C        C      0.387900000000     0.759200000000     0.424600000000    -0.218594   
C        C      0.547130000000     0.496400000000     0.277900000000    -0.218594   
C        C      0.735330000000     0.440500000000     0.291200000000    -0.218594   
C        C      0.768430000000     0.415300000000     0.205400000000    -0.218594   
C        C      0.684930000000     0.432600000000     0.156700000000    -0.218594   
C        C      0.572130000000     0.474000000000     0.195100000000    -0.218594   
C        C      0.718230000000     0.413200000000     0.066300000000    -0.218594   
C        C      0.962130000000     0.530900000000     0.052700000000    -0.218594   
C        C      0.845730000000     0.548100000000     0.113000000000    -0.218594   
C        C      0.815630000000     0.645600000000     0.168300000000    -0.218594   
C        C      0.774630000000     0.682400000000     0.111100000000    -0.218594   
C        C      0.721230000000     0.665400000000     0.240800000000    -0.218594   
C        C      0.880470000000     0.781500000000     0.503600000000    -0.218594   
C        C      0.068670000000     0.850700000000     0.559500000000    -0.218594   
C        C      0.101770000000     0.790100000000     0.584700000000    -0.218594   
C        C      0.018270000000     0.724100000000     0.567400000000    -0.218594   
C        C      0.905470000000     0.721100000000     0.526000000000    -0.218594   
C        C      0.051570000000     0.653100000000     0.586800000000    -0.218594   
C        C      0.295470000000     0.521800000000     0.469100000000    -0.218594   
C        C      0.179070000000     0.564900000000     0.451900000000    -0.218594   
C        C      0.148970000000     0.522700000000     0.354400000000    -0.218594   
C        C      0.107970000000     0.428700000000     0.317600000000    -0.218594   
C        C      0.054570000000     0.575400000000     0.334600000000    -0.218594   
Br       Br     0.912310000000     0.868740000000     0.320530000000    -0.365613   
Br       Br     0.245640000000     0.451790000000     0.131260000000    -0.365613   
Br       Br     0.578980000000     0.679470000000     0.548210000000    -0.365613   
Br       Br     0.412310000000     0.131260000000     0.679470000000    -0.365613   
Br       Br     0.745640000000     0.548210000000     0.868740000000    -0.365613   
Br       Br     0.078980000000     0.320530000000     0.451790000000    -0.365613   
N        N      0.796200000000     0.327500000000     0.845300000000    -0.142774   
N        N      0.903100000000     0.059400000000     0.566000000000    -0.142774   
N        N      0.129530000000     0.517800000000     0.672500000000    -0.142774   
N        N      0.236430000000     0.506600000000     0.940600000000    -0.142774   
N        N      0.462870000000     0.154700000000     0.482200000000    -0.142774   
N        N      0.569770000000     0.434000000000     0.493400000000    -0.142774   
N        N      0.296200000000     0.672500000000     0.154700000000    -0.142774   
N        N      0.403100000000     0.940600000000     0.434000000000    -0.142774   
N        N      0.629530000000     0.482200000000     0.327500000000    -0.142774   
N        N      0.736430000000     0.493400000000     0.059400000000    -0.142774   
N        N      0.962870000000     0.845300000000     0.517800000000    -0.142774   
N        N      0.069770000000     0.566000000000     0.506600000000    -0.142774   
O        O      0.118000000000     0.973700000000     0.488800000000    -0.342356   
O        O      0.228000000000     0.092100000000     0.522000000000    -0.342356   
O        O      0.451330000000     0.515100000000     0.026300000000    -0.342356   
O        O      0.561330000000     0.429900000000     0.907900000000    -0.342356   
O        O      0.784670000000     0.511200000000     0.484900000000    -0.342356   
O        O      0.894670000000     0.478000000000     0.570100000000    -0.342356   
O        O      0.618000000000     0.026300000000     0.511200000000    -0.342356   
O        O      0.728000000000     0.907900000000     0.478000000000    -0.342356   
O        O      0.951330000000     0.484900000000     0.973700000000    -0.342356   
O        O      0.061330000000     0.570100000000     0.092100000000    -0.342356   
O        O      0.284670000000     0.488800000000     0.515100000000    -0.342356   
O        O      0.394670000000     0.522000000000     0.429900000000    -0.342356   


