data_IBIDAA_original

_audit_creation_method RASPA-1.0
_audit_creation_date 2022-1-30
_audit_author_name 'Felipe Lopes de Oliveira <felipe.lopes.oliveira@ibm.com>'

_cell_length_a    10.5031
_cell_length_b    17.859
_cell_length_c    17.859
_cell_angle_alpha 120
_cell_angle_beta  90
_cell_angle_gamma 90
_cell_volume      2901.1

_symmetry_cell_setting          triclinic
_symmetry_space_group_name_Hall 'P 1'
_symmetry_space_group_name_H-M  'P 1'
_symmetry_Int_Tables_number     1

_symmetry_equiv_pos_as_xyz 'x,y,z'

loop_
_atom_site_label
_atom_site_type_symbol
_atom_site_fract_x
_atom_site_fract_y
_atom_site_fract_z
_atom_site_charge
Zn       Zn     0.559490000000     0.543850000000     0.070060000000     0.403394   
Zn       Zn     0.226160000000     0.526210000000     0.456150000000     0.403394   
Zn       Zn     0.892820000000     0.929940000000     0.473790000000     0.403394   
Zn       Zn     0.059490000000     0.456150000000     0.929940000000     0.403394   
Zn       Zn     0.726160000000     0.473790000000     0.543850000000     0.403394   
Zn       Zn     0.392820000000     0.070060000000     0.526210000000     0.403394   
H        H      0.671800000000     0.363500000000     0.784200000000     0.271233   
H        H      0.557400000000     0.360300000000     0.726300000000     0.271233   
H        H      0.602600000000     0.275600000000     0.724100000000     0.271233   
H        H      0.420000000000     0.324400000000     0.805800000000     0.271233   
H        H      0.551300000000     0.259700000000     0.855900000000     0.271233   
H        H      0.481800000000     0.336200000000     0.934600000000     0.271233   
H        H      0.623700000000     0.346600000000     0.914100000000     0.271233   
H        H      0.441600000000     0.471500000000     0.846700000000     0.271233   
H        H      0.663300000000     0.620100000000     0.972000000000     0.271233   
H        H      0.518200000000     0.618200000000     0.951000000000     0.271233   
H        H      0.802200000000     0.515700000000     0.837000000000     0.271233   
H        H      0.470000000000     0.612700000000     0.818200000000     0.271233   
H        H      0.522400000000     0.574500000000     0.678500000000     0.271233   
H        H      0.845700000000     0.474700000000     0.697100000000     0.271233   
H        H      0.651800000000     0.474500000000     0.920200000000     0.271233   
H        H      0.338470000000     0.420700000000     0.636500000000     0.271233   
H        H      0.224070000000     0.366000000000     0.639700000000     0.271233   
H        H      0.269270000000     0.448500000000     0.724400000000     0.271233   
H        H      0.086670000000     0.481400000000     0.675600000000     0.271233   
H        H      0.217970000000     0.596200000000     0.740300000000     0.271233   
H        H      0.148470000000     0.598400000000     0.663800000000     0.271233   
H        H      0.290370000000     0.567500000000     0.653400000000     0.271233   
H        H      0.108270000000     0.375200000000     0.528500000000     0.271233   
H        H      0.329970000000     0.351900000000     0.379900000000     0.271233   
H        H      0.184870000000     0.332800000000     0.381800000000     0.271233   
H        H      0.468870000000     0.321300000000     0.484300000000     0.271233   
H        H      0.136670000000     0.205500000000     0.387300000000     0.271233   
H        H      0.189070000000     0.104000000000     0.425500000000     0.271233   
H        H      0.512370000000     0.222400000000     0.525300000000     0.271233   
H        H      0.318470000000     0.445700000000     0.525500000000     0.271233   
H        H      0.005130000000     0.215800000000     0.579300000000     0.271233   
H        H      0.890730000000     0.273700000000     0.634000000000     0.271233   
H        H      0.935930000000     0.275900000000     0.551500000000     0.271233   
H        H      0.753330000000     0.194200000000     0.518600000000     0.271233   
H        H      0.884630000000     0.144100000000     0.403800000000     0.271233   
H        H      0.815130000000     0.065400000000     0.401600000000     0.271233   
H        H      0.957030000000     0.085900000000     0.432500000000     0.271233   
H        H      0.774930000000     0.153300000000     0.624800000000     0.271233   
H        H      0.996630000000     0.028000000000     0.648100000000     0.271233   
H        H      0.851530000000     0.049000000000     0.667200000000     0.271233   
H        H      0.135530000000     0.163000000000     0.678700000000     0.271233   
H        H      0.803330000000     0.181800000000     0.794500000000     0.271233   
H        H      0.855730000000     0.321500000000     0.896000000000     0.271233   
H        H      0.179030000000     0.302900000000     0.777600000000     0.271233   
H        H      0.985130000000     0.079800000000     0.554300000000     0.271233   
H        H      0.171800000000     0.636500000000     0.215800000000     0.271233   
H        H      0.057400000000     0.639700000000     0.273700000000     0.271233   
H        H      0.102600000000     0.724400000000     0.275900000000     0.271233   
H        H      0.920000000000     0.675600000000     0.194200000000     0.271233   
H        H      0.051300000000     0.740300000000     0.144100000000     0.271233   
H        H      0.981800000000     0.663800000000     0.065400000000     0.271233   
H        H      0.123700000000     0.653400000000     0.085900000000     0.271233   
H        H      0.941600000000     0.528500000000     0.153300000000     0.271233   
H        H      0.163300000000     0.379900000000     0.028000000000     0.271233   
H        H      0.018200000000     0.381800000000     0.049000000000     0.271233   
H        H      0.302200000000     0.484300000000     0.163000000000     0.271233   
H        H      0.970000000000     0.387300000000     0.181800000000     0.271233   
H        H      0.022400000000     0.425500000000     0.321500000000     0.271233   
H        H      0.345700000000     0.525300000000     0.302900000000     0.271233   
H        H      0.151800000000     0.525500000000     0.079800000000     0.271233   
H        H      0.838470000000     0.579300000000     0.363500000000     0.271233   
H        H      0.724070000000     0.634000000000     0.360300000000     0.271233   
H        H      0.769270000000     0.551500000000     0.275600000000     0.271233   
H        H      0.586670000000     0.518600000000     0.324400000000     0.271233   
H        H      0.717970000000     0.403800000000     0.259700000000     0.271233   
H        H      0.648470000000     0.401600000000     0.336200000000     0.271233   
H        H      0.790370000000     0.432500000000     0.346600000000     0.271233   
H        H      0.608270000000     0.624800000000     0.471500000000     0.271233   
H        H      0.829970000000     0.648100000000     0.620100000000     0.271233   
H        H      0.684870000000     0.667200000000     0.618200000000     0.271233   
H        H      0.968870000000     0.678700000000     0.515700000000     0.271233   
H        H      0.636670000000     0.794500000000     0.612700000000     0.271233   
H        H      0.689070000000     0.896000000000     0.574500000000     0.271233   
H        H      0.012370000000     0.777600000000     0.474700000000     0.271233   
H        H      0.818470000000     0.554300000000     0.474500000000     0.271233   
H        H      0.505130000000     0.784200000000     0.420700000000     0.271233   
H        H      0.390730000000     0.726300000000     0.366000000000     0.271233   
H        H      0.435930000000     0.724100000000     0.448500000000     0.271233   
H        H      0.253330000000     0.805800000000     0.481400000000     0.271233   
H        H      0.384630000000     0.855900000000     0.596200000000     0.271233   
H        H      0.315130000000     0.934600000000     0.598400000000     0.271233   
H        H      0.457030000000     0.914100000000     0.567500000000     0.271233   
H        H      0.274930000000     0.846700000000     0.375200000000     0.271233   
H        H      0.496630000000     0.972000000000     0.351900000000     0.271233   
H        H      0.351530000000     0.951000000000     0.332800000000     0.271233   
H        H      0.635530000000     0.837000000000     0.321300000000     0.271233   
H        H      0.303330000000     0.818200000000     0.205500000000     0.271233   
H        H      0.355730000000     0.678500000000     0.104000000000     0.271233   
H        H      0.679030000000     0.697100000000     0.222400000000     0.271233   
H        H      0.485130000000     0.920200000000     0.445700000000     0.271233   
C        C      0.591300000000     0.336900000000     0.760200000000    -0.282552   
C        C      0.499300000000     0.354700000000     0.832900000000    -0.282552   
C        C      0.542800000000     0.321400000000     0.889300000000    -0.282552   
C        C      0.466500000000     0.451700000000     0.886800000000    -0.282552   
C        C      0.596300000000     0.584800000000     0.933000000000    -0.282552   
C        C      0.629100000000     0.565200000000     0.842200000000    -0.282552   
C        C      0.742600000000     0.526100000000     0.804800000000    -0.282552   
C        C      0.546300000000     0.584300000000     0.794300000000    -0.282552   
C        C      0.578100000000     0.560500000000     0.710100000000    -0.282552   
C        C      0.769000000000     0.502300000000     0.721200000000    -0.282552   
C        C      0.353500000000     0.467000000000     0.947400000000    -0.282552   
C        C      0.257970000000     0.423300000000     0.663100000000    -0.282552   
C        C      0.165970000000     0.478200000000     0.645300000000    -0.282552   
C        C      0.209470000000     0.567900000000     0.678600000000    -0.282552   
C        C      0.133170000000     0.435100000000     0.548300000000    -0.282552   
C        C      0.262970000000     0.348200000000     0.415200000000    -0.282552   
C        C      0.295770000000     0.277000000000     0.434800000000    -0.282552   
C        C      0.409270000000     0.278700000000     0.473900000000    -0.282552   
C        C      0.212970000000     0.210000000000     0.415700000000    -0.282552   
C        C      0.244770000000     0.149600000000     0.439500000000    -0.282552   
C        C      0.435670000000     0.218900000000     0.497700000000    -0.282552   
C        C      0.020170000000     0.480400000000     0.533000000000    -0.282552   
C        C      0.924630000000     0.239800000000     0.576700000000    -0.282552   
C        C      0.832630000000     0.167100000000     0.521800000000    -0.282552   
C        C      0.876130000000     0.110700000000     0.432100000000    -0.282552   
C        C      0.799830000000     0.113200000000     0.564900000000    -0.282552   
C        C      0.929630000000     0.067000000000     0.651800000000    -0.282552   
C        C      0.962430000000     0.157800000000     0.723000000000    -0.282552   
C        C      0.075930000000     0.195200000000     0.721300000000    -0.282552   
C        C      0.879630000000     0.205700000000     0.790000000000    -0.282552   
C        C      0.911430000000     0.289900000000     0.850400000000    -0.282552   
C        C      0.102330000000     0.278800000000     0.781100000000    -0.282552   
C        C      0.686830000000     0.052600000000     0.519600000000    -0.282552   
C        C      0.091300000000     0.663100000000     0.239800000000    -0.282552   
C        C      0.999300000000     0.645300000000     0.167100000000    -0.282552   
C        C      0.042800000000     0.678600000000     0.110700000000    -0.282552   
C        C      0.966500000000     0.548300000000     0.113200000000    -0.282552   
C        C      0.096300000000     0.415200000000     0.067000000000    -0.282552   
C        C      0.129100000000     0.434800000000     0.157800000000    -0.282552   
C        C      0.242600000000     0.473900000000     0.195200000000    -0.282552   
C        C      0.046300000000     0.415700000000     0.205700000000    -0.282552   
C        C      0.078100000000     0.439500000000     0.289900000000    -0.282552   
C        C      0.269000000000     0.497700000000     0.278800000000    -0.282552   
C        C      0.853500000000     0.533000000000     0.052600000000    -0.282552   
C        C      0.757970000000     0.576700000000     0.336900000000    -0.282552   
C        C      0.665970000000     0.521800000000     0.354700000000    -0.282552   
C        C      0.709470000000     0.432100000000     0.321400000000    -0.282552   
C        C      0.633170000000     0.564900000000     0.451700000000    -0.282552   
C        C      0.762970000000     0.651800000000     0.584800000000    -0.282552   
C        C      0.795770000000     0.723000000000     0.565200000000    -0.282552   
C        C      0.909270000000     0.721300000000     0.526100000000    -0.282552   
C        C      0.712970000000     0.790000000000     0.584300000000    -0.282552   
C        C      0.744770000000     0.850400000000     0.560500000000    -0.282552   
C        C      0.935670000000     0.781100000000     0.502300000000    -0.282552   
C        C      0.520170000000     0.519600000000     0.467000000000    -0.282552   
C        C      0.424630000000     0.760200000000     0.423300000000    -0.282552   
C        C      0.332630000000     0.832900000000     0.478200000000    -0.282552   
C        C      0.376130000000     0.889300000000     0.567900000000    -0.282552   
C        C      0.299830000000     0.886800000000     0.435100000000    -0.282552   
C        C      0.429630000000     0.933000000000     0.348200000000    -0.282552   
C        C      0.462430000000     0.842200000000     0.277000000000    -0.282552   
C        C      0.575930000000     0.804800000000     0.278700000000    -0.282552   
C        C      0.379630000000     0.794300000000     0.210000000000    -0.282552   
C        C      0.411430000000     0.710100000000     0.149600000000    -0.282552   
C        C      0.602330000000     0.721200000000     0.218900000000    -0.282552   
C        C      0.186830000000     0.947400000000     0.480400000000    -0.282552   
Br       Br     0.569990000000     0.453630000000     0.131050000000    -0.38504    
Br       Br     0.236660000000     0.677420000000     0.546370000000    -0.38504    
Br       Br     0.903320000000     0.868950000000     0.322580000000    -0.38504    
Br       Br     0.069990000000     0.546370000000     0.868950000000    -0.38504    
Br       Br     0.736660000000     0.322580000000     0.453630000000    -0.38504    
Br       Br     0.403320000000     0.131050000000     0.677420000000    -0.38504    
N        N      0.579900000000     0.507100000000     0.940500000000    -0.131315   
N        N      0.686900000000     0.517700000000     0.671900000000    -0.131315   
N        N      0.246570000000     0.433400000000     0.492900000000    -0.131315   
N        N      0.353570000000     0.154200000000     0.482300000000    -0.131315   
N        N      0.913230000000     0.059500000000     0.566600000000    -0.131315   
N        N      0.020230000000     0.328100000000     0.845800000000    -0.131315   
N        N      0.079900000000     0.492900000000     0.059500000000    -0.131315   
N        N      0.186900000000     0.482300000000     0.328100000000    -0.131315   
N        N      0.746570000000     0.566600000000     0.507100000000    -0.131315   
N        N      0.853570000000     0.845800000000     0.517700000000    -0.131315   
N        N      0.413230000000     0.940500000000     0.433400000000    -0.131315   
N        N      0.520230000000     0.671900000000     0.154200000000    -0.131315   
O        O      0.254900000000     0.427500000000     0.910100000000    -0.358074   
O        O      0.364000000000     0.517000000000     0.026200000000    -0.358074   
O        O      0.921570000000     0.482600000000     0.572500000000    -0.358074   
O        O      0.030670000000     0.509200000000     0.483000000000    -0.358074   
O        O      0.588230000000     0.089900000000     0.517400000000    -0.358074   
O        O      0.697330000000     0.973800000000     0.490800000000    -0.358074   
O        O      0.754900000000     0.572500000000     0.089900000000    -0.358074   
O        O      0.864000000000     0.483000000000     0.973800000000    -0.358074   
O        O      0.421570000000     0.517400000000     0.427500000000    -0.358074   
O        O      0.530670000000     0.490800000000     0.517000000000    -0.358074   
O        O      0.088230000000     0.910100000000     0.482600000000    -0.358074   
O        O      0.197330000000     0.026200000000     0.509200000000    -0.358074   


