data_IBOTAU_original

_audit_creation_method RASPA-1.0
_audit_creation_date 2022-1-31
_audit_author_name 'Felipe Lopes de Oliveira <felipe.lopes.oliveira@ibm.com>'

_cell_length_a    9.363
_cell_length_b    9.363
_cell_length_c    9.363
_cell_angle_alpha 93.2247
_cell_angle_beta  93.2247
_cell_angle_gamma 93.2247
_cell_volume      816.763

_symmetry_cell_setting          triclinic
_symmetry_space_group_name_Hall 'P 1'
_symmetry_space_group_name_H-M  'P 1'
_symmetry_Int_Tables_number     1

_symmetry_equiv_pos_as_xyz 'x,y,z'

loop_
_atom_site_label
_atom_site_type_symbol
_atom_site_fract_x
_atom_site_fract_y
_atom_site_fract_z
_atom_site_charge
Zn       Zn     0.938130000000     0.666580000000     0.125560000000     0.502679   
Zn       Zn     0.125560000000     0.938130000000     0.666580000000     0.502679   
Zn       Zn     0.666580000000     0.125560000000     0.938130000000     0.502679   
Zn       Zn     0.061870000000     0.333420000000     0.874440000000     0.502679   
Zn       Zn     0.874440000000     0.061870000000     0.333420000000     0.502679   
Zn       Zn     0.333420000000     0.874440000000     0.061870000000     0.502679   
Zn       Zn     0.000000000000     0.000000000000     0.000000000000     0.502679   
P        P      0.120270000000     0.686900000000     0.873390000000     0.511518   
P        P      0.873390000000     0.120270000000     0.686900000000     0.511518   
P        P      0.686900000000     0.873390000000     0.120270000000     0.511518   
P        P      0.879730000000     0.313100000000     0.126610000000     0.511518   
P        P      0.126610000000     0.879730000000     0.313100000000     0.511518   
P        P      0.313100000000     0.126610000000     0.879730000000     0.511518   
O        O      0.145700000000     0.940700000000     0.466600000000    -0.274494   
O        O      0.745800000000     0.724700000000     0.120300000000    -0.274494   
O        O      0.052400000000     0.730500000000     0.301400000000    -0.274494   
O        O      0.020800000000     0.774000000000     0.968200000000    -0.274494   
O        O      0.466600000000     0.145700000000     0.940700000000    -0.274494   
O        O      0.120300000000     0.745800000000     0.724700000000    -0.274494   
O        O      0.301400000000     0.052400000000     0.730500000000    -0.274494   
O        O      0.968200000000     0.020800000000     0.774000000000    -0.274494   
O        O      0.940700000000     0.466600000000     0.145700000000    -0.274494   
O        O      0.724700000000     0.120300000000     0.745800000000    -0.274494   
O        O      0.730500000000     0.301400000000     0.052400000000    -0.274494   
O        O      0.774000000000     0.968200000000     0.020800000000    -0.274494   
O        O      0.854300000000     0.059300000000     0.533400000000    -0.274494   
O        O      0.254200000000     0.275300000000     0.879700000000    -0.274494   
O        O      0.947600000000     0.269500000000     0.698600000000    -0.274494   
O        O      0.979200000000     0.226000000000     0.031800000000    -0.274494   
O        O      0.533400000000     0.854300000000     0.059300000000    -0.274494   
O        O      0.879700000000     0.254200000000     0.275300000000    -0.274494   
O        O      0.698600000000     0.947600000000     0.269500000000    -0.274494   
O        O      0.031800000000     0.979200000000     0.226000000000    -0.274494   
O        O      0.059300000000     0.533400000000     0.854300000000    -0.274494   
O        O      0.275300000000     0.879700000000     0.254200000000    -0.274494   
O        O      0.269500000000     0.698600000000     0.947600000000    -0.274494   
O        O      0.226000000000     0.031800000000     0.979200000000    -0.274494   


