data_ICAGAU_original

_audit_creation_method RASPA-1.0
_audit_creation_date 2022-1-29
_audit_author_name 'Felipe Lopes de Oliveira <felipe.lopes.oliveira@ibm.com>'

_cell_length_a    9.9015
_cell_length_b    9.9015
_cell_length_c    13.4199
_cell_angle_alpha 90
_cell_angle_beta  90
_cell_angle_gamma 90
_cell_volume      1315.68

_symmetry_cell_setting          triclinic
_symmetry_space_group_name_Hall 'P 1'
_symmetry_space_group_name_H-M  'P 1'
_symmetry_Int_Tables_number     1

_symmetry_equiv_pos_as_xyz 'x,y,z'

loop_
_atom_site_label
_atom_site_type_symbol
_atom_site_fract_x
_atom_site_fract_y
_atom_site_fract_z
_atom_site_charge
Zn       Zn     0.853150000000     0.100250000000     0.696780000000     0.514315   
Zn       Zn     0.146850000000     0.899750000000     0.696780000000     0.514315   
Zn       Zn     0.100250000000     0.146850000000     0.303220000000     0.514315   
Zn       Zn     0.899750000000     0.853150000000     0.303220000000     0.514315   
Zn       Zn     0.646850000000     0.600250000000     0.803220000000     0.514315   
Zn       Zn     0.353150000000     0.399750000000     0.803220000000     0.514315   
Zn       Zn     0.399750000000     0.646850000000     0.196780000000     0.514315   
Zn       Zn     0.600250000000     0.353150000000     0.196780000000     0.514315   
Zn       Zn     0.000000000000     0.000000000000     0.000000000000     0.514315   
Zn       Zn     0.500000000000     0.500000000000     0.500000000000     0.514315   
P        P      0.883900000000     0.827100000000     0.816000000000     0.523054   
P        P      0.116100000000     0.172900000000     0.816000000000     0.523054   
P        P      0.827100000000     0.116100000000     0.184000000000     0.523054   
P        P      0.172900000000     0.883900000000     0.184000000000     0.523054   
P        P      0.616100000000     0.327100000000     0.684000000000     0.523054   
P        P      0.383900000000     0.672900000000     0.684000000000     0.523054   
P        P      0.672900000000     0.616100000000     0.316000000000     0.523054   
P        P      0.327100000000     0.383900000000     0.316000000000     0.523054   
P        P      0.000000000000     0.000000000000     0.500000000000     0.523054   
P        P      0.500000000000     0.500000000000     0.000000000000     0.523054   
O        O      0.876800000000     0.889000000000     0.921800000000    -0.259342   
O        O      0.813300000000     0.915600000000     0.740700000000    -0.259342   
O        O      0.032300000000     0.806800000000     0.789900000000    -0.259342   
O        O      0.818500000000     0.690000000000     0.816000000000    -0.259342   
O        O      0.927700000000     0.104400000000     0.561700000000    -0.259342   
O        O      0.123200000000     0.111000000000     0.921800000000    -0.259342   
O        O      0.186700000000     0.084400000000     0.740700000000    -0.259342   
O        O      0.967700000000     0.193200000000     0.789900000000    -0.259342   
O        O      0.181500000000     0.310000000000     0.816000000000    -0.259342   
O        O      0.072300000000     0.895600000000     0.561700000000    -0.259342   
O        O      0.889000000000     0.123200000000     0.078200000000    -0.259342   
O        O      0.915600000000     0.186700000000     0.259300000000    -0.259342   
O        O      0.806800000000     0.967700000000     0.210100000000    -0.259342   
O        O      0.690000000000     0.181500000000     0.184000000000    -0.259342   
O        O      0.104400000000     0.072300000000     0.438300000000    -0.259342   
O        O      0.111000000000     0.876800000000     0.078200000000    -0.259342   
O        O      0.084400000000     0.813300000000     0.259300000000    -0.259342   
O        O      0.193200000000     0.032300000000     0.210100000000    -0.259342   
O        O      0.310000000000     0.818500000000     0.184000000000    -0.259342   
O        O      0.895600000000     0.927700000000     0.438300000000    -0.259342   
O        O      0.623200000000     0.389000000000     0.578200000000    -0.259342   
O        O      0.686700000000     0.415600000000     0.759300000000    -0.259342   
O        O      0.467700000000     0.306800000000     0.710100000000    -0.259342   
O        O      0.681500000000     0.190000000000     0.684000000000    -0.259342   
O        O      0.572300000000     0.604400000000     0.938300000000    -0.259342   
O        O      0.376800000000     0.611000000000     0.578200000000    -0.259342   
O        O      0.313300000000     0.584400000000     0.759300000000    -0.259342   
O        O      0.532300000000     0.693200000000     0.710100000000    -0.259342   
O        O      0.318500000000     0.810000000000     0.684000000000    -0.259342   
O        O      0.427700000000     0.395600000000     0.938300000000    -0.259342   
O        O      0.611000000000     0.623200000000     0.421800000000    -0.259342   
O        O      0.584400000000     0.686700000000     0.240700000000    -0.259342   
O        O      0.693200000000     0.467700000000     0.289900000000    -0.259342   
O        O      0.810000000000     0.681500000000     0.316000000000    -0.259342   
O        O      0.395600000000     0.572300000000     0.061700000000    -0.259342   
O        O      0.389000000000     0.376800000000     0.421800000000    -0.259342   
O        O      0.415600000000     0.313300000000     0.240700000000    -0.259342   
O        O      0.306800000000     0.532300000000     0.289900000000    -0.259342   
O        O      0.190000000000     0.318500000000     0.316000000000    -0.259342   
O        O      0.604400000000     0.427700000000     0.061700000000    -0.259342   


