data_IFENOY_original

_audit_creation_method RASPA-1.0
_audit_creation_date 2022-1-31
_audit_author_name 'Felipe Lopes de Oliveira <felipe.lopes.oliveira@ibm.com>'

_cell_length_a    5.1462
_cell_length_b    18.9798
_cell_length_c    18.9798
_cell_angle_alpha 88.9469
_cell_angle_beta  82.2083
_cell_angle_gamma 82.2084
_cell_volume      1819.76

_symmetry_cell_setting          triclinic
_symmetry_space_group_name_Hall 'P 1'
_symmetry_space_group_name_H-M  'P 1'
_symmetry_Int_Tables_number     1

_symmetry_equiv_pos_as_xyz 'x,y,z'

loop_
_atom_site_label
_atom_site_type_symbol
_atom_site_fract_x
_atom_site_fract_y
_atom_site_fract_z
_atom_site_charge
Zn       Zn     0.198420000000     0.512140000000     0.940870000000     0.454192   
Zn       Zn     0.651420000000     0.487860000000     0.059130000000     0.454192   
Zn       Zn     0.289450000000     0.059120000000     0.512140000000     0.454192   
Zn       Zn     0.860710000000     0.940880000000     0.487860000000     0.454192   
H        H      0.446300000000     0.595900000000     0.811500000000     0.0702964  
H        H      0.180800000000     0.527400000000     0.059600000000     0.0702964  
H        H      0.706300000000     0.632500000000     0.992500000000     0.0702964  
H        H      0.299500000000     0.706700000000     0.049100000000     0.0702964  
H        H      0.027300000000     0.814900000000     0.059700000000     0.0702964  
H        H      0.134400000000     0.911800000000     0.987800000000     0.0702964  
H        H      0.504000000000     0.900800000000     0.904000000000     0.0702964  
H        H      0.893700000000     0.825800000000     0.838800000000     0.0702964  
H        H      0.460500000000     0.637400000000     0.701200000000     0.0702964  
H        H      0.607500000000     0.690600000000     0.592600000000     0.0702964  
H        H      0.477500000000     0.882500000000     0.689500000000     0.0702964  
H        H      0.338500000000     0.827000000000     0.797600000000     0.0702964  
H        H      0.853700000000     0.404100000000     0.188500000000     0.0702964  
H        H      0.767800000000     0.472600000000     0.940400000000     0.0702964  
H        H      0.331300000000     0.367500000000     0.007500000000     0.0702964  
H        H      0.055300000000     0.293300000000     0.950900000000     0.0702964  
H        H      0.901900000000     0.185100000000     0.940300000000     0.0702964  
H        H      0.034000000000     0.088200000000     0.012200000000     0.0702964  
H        H      0.308800000000     0.099200000000     0.096000000000     0.0702964  
H        H      0.558300000000     0.174200000000     0.161200000000     0.0702964  
H        H      0.799100000000     0.362600000000     0.298800000000     0.0702964  
H        H      0.890700000000     0.309400000000     0.407400000000     0.0702964  
H        H      0.049500000000     0.117500000000     0.310500000000     0.0702964  
H        H      0.963100000000     0.173000000000     0.202400000000     0.0702964  
H        H      0.957800000000     0.188500000000     0.595900000000     0.0702964  
H        H      0.291800000000     0.940400000000     0.527400000000     0.0702964  
H        H      0.661200000000     0.007500000000     0.632500000000     0.0702964  
H        H      0.993800000000     0.950900000000     0.706700000000     0.0702964  
H        H      0.157800000000     0.940300000000     0.814900000000     0.0702964  
H        H      0.953800000000     0.012200000000     0.911800000000     0.0702964  
H        H      0.595200000000     0.096000000000     0.900800000000     0.0702964  
H        H      0.280500000000     0.161200000000     0.825800000000     0.0702964  
H        H      0.902100000000     0.298800000000     0.637400000000     0.0702964  
H        H      0.701900000000     0.407400000000     0.690600000000     0.0702964  
H        H      0.640000000000     0.310500000000     0.882500000000     0.0702964  
H        H      0.834500000000     0.202400000000     0.827000000000     0.0702964  
H        H      0.742200000000     0.811500000000     0.404100000000     0.0702964  
H        H      0.759600000000     0.059600000000     0.472600000000     0.0702964  
H        H      0.301200000000     0.992500000000     0.367500000000     0.0702964  
H        H      0.651400000000     0.049100000000     0.293300000000     0.0702964  
H        H      0.913000000000     0.059700000000     0.185100000000     0.0702964  
H        H      0.877800000000     0.987800000000     0.088200000000     0.0702964  
H        H      0.592000000000     0.904000000000     0.099200000000     0.0702964  
H        H      0.267500000000     0.838800000000     0.174200000000     0.0702964  
H        H      0.838300000000     0.701200000000     0.362600000000     0.0702964  
H        H      0.799900000000     0.592600000000     0.309400000000     0.0702964  
H        H      0.833000000000     0.689500000000     0.117500000000     0.0702964  
H        H      0.863900000000     0.797600000000     0.173000000000     0.0702964  
C        C      0.301060000000     0.626370000000     0.835510000000     0.0053842  
C        C      0.956420000000     0.665160000000     0.909800000000     0.0053842  
C        C      0.742170000000     0.671380000000     0.962080000000     0.0053842  
C        C      0.577830000000     0.737040000000     0.969100000000     0.0053842  
C        C      0.343790000000     0.745520000000     0.019700000000     0.0053842  
C        C      0.182550000000     0.809610000000     0.025890000000     0.0053842  
C        C      0.246280000000     0.867500000000     0.982340000000     0.0053842  
C        C      0.464870000000     0.861110000000     0.932750000000     0.0053842  
C        C      0.636440000000     0.795170000000     0.923350000000     0.0053842  
C        C      0.854860000000     0.787490000000     0.869590000000     0.0053842  
C        C      0.009030000000     0.722720000000     0.863420000000     0.0053842  
C        C      0.352590000000     0.728670000000     0.754550000000     0.0053842  
C        C      0.455600000000     0.687500000000     0.697900000000     0.0053842  
C        C      0.555100000000     0.718300000000     0.634500000000     0.0053842  
C        C      0.576670000000     0.793160000000     0.633900000000     0.0053842  
C        C      0.480320000000     0.832330000000     0.691430000000     0.0053842  
C        C      0.383040000000     0.800220000000     0.754900000000     0.0053842  
C        C      0.659200000000     0.825800000000     0.562400000000     0.0053842  
C        C      0.762940000000     0.373630000000     0.164490000000     0.0053842  
C        C      0.531380000000     0.334840000000     0.090200000000     0.0053842  
C        C      0.375630000000     0.328620000000     0.037920000000     0.0053842  
C        C      0.283970000000     0.262960000000     0.030900000000     0.0053842  
C        C      0.109010000000     0.254480000000     0.980300000000     0.0053842  
C        C      0.018050000000     0.190390000000     0.974110000000     0.0053842  
C        C      0.096120000000     0.132500000000     0.017660000000     0.0053842  
C        C      0.258730000000     0.138890000000     0.067250000000     0.0053842  
C        C      0.354960000000     0.204830000000     0.076650000000     0.0053842  
C        C      0.511940000000     0.212510000000     0.130410000000     0.0053842  
C        C      0.595170000000     0.277280000000     0.136580000000     0.0053842  
C        C      0.835810000000     0.271330000000     0.245450000000     0.0053842  
C        C      0.841000000000     0.312500000000     0.302100000000     0.0053842  
C        C      0.907900000000     0.281700000000     0.365500000000     0.0053842  
C        C      0.003730000000     0.206840000000     0.366100000000     0.0053842  
C        C      0.004080000000     0.167670000000     0.308570000000     0.0053842  
C        C      0.938160000000     0.199780000000     0.245100000000     0.0053842  
C        C      0.047400000000     0.174200000000     0.437600000000     0.0053842  
C        C      0.072570000000     0.164490000000     0.626370000000     0.0053842  
C        C      0.378420000000     0.090200000000     0.665160000000     0.0053842  
C        C      0.586450000000     0.037920000000     0.671380000000     0.0053842  
C        C      0.685130000000     0.030900000000     0.737040000000     0.0053842  
C        C      0.910690000000     0.980300000000     0.745520000000     0.0053842  
C        C      0.007840000000     0.974110000000     0.809610000000     0.0053842  
C        C      0.886220000000     0.017660000000     0.867500000000     0.0053842  
C        C      0.674020000000     0.067250000000     0.861110000000     0.0053842  
C        C      0.568390000000     0.076650000000     0.795170000000     0.0053842  
C        C      0.357650000000     0.130410000000     0.787490000000     0.0053842  
C        C      0.268250000000     0.136580000000     0.722720000000     0.0053842  
C        C      0.918740000000     0.245450000000     0.728670000000     0.0053842  
C        C      0.856900000000     0.302100000000     0.687500000000     0.0053842  
C        C      0.726600000000     0.365500000000     0.718300000000     0.0053842  
C        C      0.630170000000     0.366100000000     0.793160000000     0.0053842  
C        C      0.687350000000     0.308570000000     0.832330000000     0.0053842  
C        C      0.816740000000     0.245100000000     0.800220000000     0.0053842  
C        C      0.515000000000     0.437600000000     0.825800000000     0.0053842  
C        C      0.863430000000     0.835510000000     0.373630000000     0.0053842  
C        C      0.133780000000     0.909800000000     0.334840000000     0.0053842  
C        C      0.295750000000     0.962080000000     0.328620000000     0.0053842  
C        C      0.453070000000     0.969100000000     0.262960000000     0.0053842  
C        C      0.636510000000     0.019700000000     0.254480000000     0.0053842  
C        C      0.791560000000     0.025890000000     0.190390000000     0.0053842  
C        C      0.771380000000     0.982340000000     0.132500000000     0.0053842  
C        C      0.602380000000     0.932750000000     0.138890000000     0.0053842  
C        C      0.440210000000     0.923350000000     0.204830000000     0.0053842  
C        C      0.275550000000     0.869590000000     0.212510000000     0.0053842  
C        C      0.127550000000     0.863420000000     0.277280000000     0.0053842  
C        C      0.892860000000     0.754550000000     0.271330000000     0.0053842  
C        C      0.846500000000     0.697900000000     0.312500000000     0.0053842  
C        C      0.810400000000     0.634500000000     0.281700000000     0.0053842  
C        C      0.789430000000     0.633900000000     0.206840000000     0.0053842  
C        C      0.828250000000     0.691430000000     0.167670000000     0.0053842  
C        C      0.862060000000     0.754900000000     0.199780000000     0.0053842  
C        C      0.778400000000     0.562400000000     0.174200000000     0.0053842  
N        N      0.147790000000     0.606600000000     0.890020000000    -0.168313   
N        N      0.232970000000     0.695580000000     0.816080000000    -0.168313   
N        N      0.644410000000     0.393400000000     0.109980000000    -0.168313   
N        N      0.744630000000     0.304420000000     0.183920000000    -0.168313   
N        N      0.245610000000     0.109980000000     0.606600000000    -0.168313   
N        N      0.071450000000     0.183920000000     0.695580000000    -0.168313   
N        N      0.962190000000     0.890020000000     0.393400000000    -0.168313   
N        N      0.950950000000     0.816080000000     0.304420000000    -0.168313   
O        O      0.323620000000     0.528820000000     0.029540000000    -0.352679   
O        O      0.635150000000     0.887690000000     0.555410000000    -0.352679   
O        O      0.774960000000     0.782750000000     0.511930000000    -0.352679   
O        O      0.881980000000     0.471180000000     0.970460000000    -0.352679   
O        O      0.078250000000     0.112310000000     0.444590000000    -0.352679   
O        O      0.069640000000     0.217250000000     0.488070000000    -0.352679   
O        O      0.147560000000     0.970460000000     0.528820000000    -0.352679   
O        O      0.477160000000     0.444590000000     0.887690000000    -0.352679   
O        O      0.442290000000     0.488070000000     0.782750000000    -0.352679   
O        O      0.646840000000     0.029540000000     0.471180000000    -0.352679   
O        O      0.809440000000     0.555410000000     0.112310000000    -0.352679   
O        O      0.713110000000     0.511930000000     0.217250000000    -0.352679   


