data_IFENOY01_original

_audit_creation_method RASPA-1.0
_audit_creation_date 2022-1-28
_audit_author_name 'Felipe Lopes de Oliveira <felipe.lopes.oliveira@ibm.com>'

_cell_length_a    5.2351
_cell_length_b    18.9281
_cell_length_c    18.9281
_cell_angle_alpha 88.9042
_cell_angle_beta  82.0513
_cell_angle_gamma 82.0512
_cell_volume      1839.73

_symmetry_cell_setting          triclinic
_symmetry_space_group_name_Hall 'P 1'
_symmetry_space_group_name_H-M  'P 1'
_symmetry_Int_Tables_number     1

_symmetry_equiv_pos_as_xyz 'x,y,z'

loop_
_atom_site_label
_atom_site_type_symbol
_atom_site_fract_x
_atom_site_fract_y
_atom_site_fract_z
_atom_site_charge
Zn       Zn     0.298660000000     0.059050000000     0.511490000000     0.448327   
Zn       Zn     0.869200000000     0.940950000000     0.488510000000     0.448327   
Zn       Zn     0.642290000000     0.488510000000     0.059050000000     0.448327   
Zn       Zn     0.189850000000     0.511490000000     0.940950000000     0.448327   
H        H      0.959300000000     0.187700000000     0.597100000000     0.0560766  
H        H      0.660800000000     0.007600000000     0.632400000000     0.0560766  
H        H      0.989700000000     0.951200000000     0.707400000000     0.0560766  
H        H      0.148500000000     0.941600000000     0.815600000000     0.0560766  
H        H      0.948900000000     0.014600000000     0.912000000000     0.0560766  
H        H      0.594400000000     0.097400000000     0.901000000000     0.0560766  
H        H      0.282700000000     0.161700000000     0.826500000000     0.0560766  
H        H      0.905000000000     0.298900000000     0.637500000000     0.0560766  
H        H      0.716900000000     0.409700000000     0.692100000000     0.0560766  
H        H      0.628900000000     0.309400000000     0.882400000000     0.0560766  
H        H      0.838400000000     0.202300000000     0.827300000000     0.0560766  
H        H      0.744100000000     0.812300000000     0.402900000000     0.0560766  
H        H      0.300800000000     0.992400000000     0.367600000000     0.0560766  
H        H      0.648300000000     0.048800000000     0.292600000000     0.0560766  
H        H      0.905700000000     0.058400000000     0.184400000000     0.0560766  
H        H      0.875500000000     0.985400000000     0.088000000000     0.0560766  
H        H      0.592800000000     0.902600000000     0.099000000000     0.0560766  
H        H      0.270900000000     0.838300000000     0.173500000000     0.0560766  
H        H      0.841400000000     0.701100000000     0.362500000000     0.0560766  
H        H      0.818700000000     0.590300000000     0.307900000000     0.0560766  
H        H      0.820700000000     0.690600000000     0.117600000000     0.0560766  
H        H      0.868000000000     0.797700000000     0.172700000000     0.0560766  
H        H      0.853000000000     0.402900000000     0.187700000000     0.0560766  
H        H      0.331600000000     0.367600000000     0.007600000000     0.0560766  
H        H      0.059100000000     0.292600000000     0.951200000000     0.0560766  
H        H      0.909900000000     0.184400000000     0.941600000000     0.0560766  
H        H      0.036500000000     0.088000000000     0.014600000000     0.0560766  
H        H      0.308200000000     0.099000000000     0.097400000000     0.0560766  
H        H      0.555600000000     0.173500000000     0.161700000000     0.0560766  
H        H      0.796100000000     0.362500000000     0.298900000000     0.0560766  
H        H      0.873400000000     0.307900000000     0.409700000000     0.0560766  
H        H      0.061700000000     0.117600000000     0.309400000000     0.0560766  
H        H      0.959300000000     0.172700000000     0.202300000000     0.0560766  
H        H      0.443600000000     0.597100000000     0.812300000000     0.0560766  
H        H      0.706800000000     0.632400000000     0.992400000000     0.0560766  
H        H      0.302900000000     0.707400000000     0.048800000000     0.0560766  
H        H      0.035900000000     0.815600000000     0.058400000000     0.0560766  
H        H      0.139100000000     0.912000000000     0.985400000000     0.0560766  
H        H      0.504600000000     0.901000000000     0.902600000000     0.0560766  
H        H      0.890800000000     0.826500000000     0.838300000000     0.0560766  
H        H      0.457500000000     0.637500000000     0.701100000000     0.0560766  
H        H      0.591000000000     0.692100000000     0.590300000000     0.0560766  
H        H      0.488700000000     0.882400000000     0.690600000000     0.0560766  
H        H      0.334300000000     0.827300000000     0.797700000000     0.0560766  
C        C      0.075340000000     0.164190000000     0.627130000000     0.0053117  
C        C      0.380170000000     0.090260000000     0.665600000000     0.0053117  
C        C      0.586370000000     0.037990000000     0.671470000000     0.0053117  
C        C      0.683000000000     0.031140000000     0.737260000000     0.0053117  
C        C      0.906400000000     0.980930000000     0.746070000000     0.0053117  
C        C      0.000770000000     0.975450000000     0.810010000000     0.0053117  
C        C      0.881490000000     0.019450000000     0.867770000000     0.0053117  
C        C      0.672520000000     0.068500000000     0.861260000000     0.0053117  
C        C      0.567330000000     0.077380000000     0.795160000000     0.0053117  
C        C      0.359340000000     0.130980000000     0.787940000000     0.0053117  
C        C      0.270930000000     0.137210000000     0.722930000000     0.0053117  
C        C      0.921640000000     0.245580000000     0.729540000000     0.0053117  
C        C      0.862200000000     0.302500000000     0.687900000000     0.0053117  
C        C      0.736800000000     0.367100000000     0.719300000000     0.0053117  
C        C      0.639410000000     0.366220000000     0.793960000000     0.0053117  
C        C      0.686000000000     0.308300000000     0.832500000000     0.0053117  
C        C      0.819190000000     0.245050000000     0.800370000000     0.0053117  
C        C      0.479100000000     0.431800000000     0.830000000000     0.0053117  
C        C      0.866660000000     0.835810000000     0.372870000000     0.0053117  
C        C      0.136030000000     0.909740000000     0.334400000000     0.0053117  
C        C      0.295830000000     0.962010000000     0.328530000000     0.0053117  
C        C      0.451400000000     0.968860000000     0.262740000000     0.0053117  
C        C      0.633400000000     0.019070000000     0.253930000000     0.0053117  
C        C      0.786230000000     0.024550000000     0.189990000000     0.0053117  
C        C      0.768710000000     0.980550000000     0.132230000000     0.0053117  
C        C      0.602280000000     0.931500000000     0.138740000000     0.0053117  
C        C      0.439870000000     0.922620000000     0.204840000000     0.0053117  
C        C      0.278260000000     0.869020000000     0.212060000000     0.0053117  
C        C      0.131070000000     0.862790000000     0.277070000000     0.0053117  
C        C      0.896760000000     0.754420000000     0.270460000000     0.0053117  
C        C      0.852600000000     0.697500000000     0.312100000000     0.0053117  
C        C      0.823200000000     0.632900000000     0.280700000000     0.0053117  
C        C      0.799590000000     0.633780000000     0.206040000000     0.0053117  
C        C      0.826800000000     0.691700000000     0.167500000000     0.0053117  
C        C      0.864610000000     0.754950000000     0.199630000000     0.0053117  
C        C      0.740900000000     0.568200000000     0.170000000000     0.0053117  
C        C      0.760470000000     0.372870000000     0.164190000000     0.0053117  
C        C      0.529570000000     0.334400000000     0.090260000000     0.0053117  
C        C      0.375640000000     0.328530000000     0.037990000000     0.0053117  
C        C      0.285860000000     0.262740000000     0.031140000000     0.0053117  
C        C      0.112670000000     0.253930000000     0.980930000000     0.0053117  
C        C      0.023780000000     0.189990000000     0.975450000000     0.0053117  
C        C      0.099060000000     0.132230000000     0.019450000000     0.0053117  
C        C      0.258980000000     0.138740000000     0.068500000000     0.0053117  
C        C      0.355290000000     0.204840000000     0.077380000000     0.0053117  
C        C      0.509680000000     0.212060000000     0.130980000000     0.0053117  
C        C      0.591860000000     0.277070000000     0.137210000000     0.0053117  
C        C      0.832780000000     0.270460000000     0.245580000000     0.0053117  
C        C      0.835300000000     0.312100000000     0.302500000000     0.0053117  
C        C      0.896100000000     0.280700000000     0.367100000000     0.0053117  
C        C      0.994370000000     0.206040000000     0.366220000000     0.0053117  
C        C      0.005700000000     0.167500000000     0.308300000000     0.0053117  
C        C      0.935760000000     0.199630000000     0.245050000000     0.0053117  
C        C      0.089100000000     0.170000000000     0.431800000000     0.0053117  
C        C      0.297530000000     0.627130000000     0.835810000000     0.0053117  
C        C      0.954230000000     0.665600000000     0.909740000000     0.0053117  
C        C      0.742160000000     0.671470000000     0.962010000000     0.0053117  
C        C      0.579740000000     0.737260000000     0.968860000000     0.0053117  
C        C      0.347530000000     0.746070000000     0.019070000000     0.0053117  
C        C      0.189220000000     0.810010000000     0.024550000000     0.0053117  
C        C      0.250740000000     0.867770000000     0.980550000000     0.0053117  
C        C      0.466220000000     0.861260000000     0.931500000000     0.0053117  
C        C      0.637510000000     0.795160000000     0.922620000000     0.0053117  
C        C      0.852720000000     0.787940000000     0.869020000000     0.0053117  
C        C      0.006140000000     0.722930000000     0.862790000000     0.0053117  
C        C      0.348820000000     0.729540000000     0.754420000000     0.0053117  
C        C      0.449900000000     0.687900000000     0.697500000000     0.0053117  
C        C      0.543900000000     0.719300000000     0.632900000000     0.0053117  
C        C      0.566630000000     0.793960000000     0.633780000000     0.0053117  
C        C      0.481500000000     0.832500000000     0.691700000000     0.0053117  
C        C      0.380440000000     0.800370000000     0.754950000000     0.0053117  
C        C      0.690900000000     0.830000000000     0.568200000000     0.0053117  
N        N      0.250160000000     0.109700000000     0.606780000000    -0.165354   
N        N      0.076670000000     0.183730000000     0.696130000000    -0.165354   
N        N      0.966640000000     0.890300000000     0.393220000000    -0.165354   
N        N      0.956530000000     0.816270000000     0.303870000000    -0.165354   
N        N      0.640140000000     0.393220000000     0.109700000000    -0.165354   
N        N      0.739600000000     0.303870000000     0.183730000000    -0.165354   
N        N      0.143060000000     0.606780000000     0.890300000000    -0.165354   
N        N      0.227200000000     0.696130000000     0.816270000000    -0.165354   
O        O      0.162700000000     0.970090000000     0.525110000000    -0.276691   
O        O      0.461130000000     0.443160000000     0.888180000000    -0.276691   
O        O      0.462100000000     0.488000000000     0.781800000000    -0.276691   
O        O      0.657900000000     0.029910000000     0.474890000000    -0.276691   
O        O      0.792470000000     0.556840000000     0.111820000000    -0.276691   
O        O      0.731900000000     0.512000000000     0.218200000000    -0.276691   
O        O      0.867210000000     0.474890000000     0.970090000000    -0.276691   
O        O      0.095710000000     0.111820000000     0.443160000000    -0.276691   
O        O      0.049900000000     0.218200000000     0.488000000000    -0.276691   
O        O      0.312190000000     0.525110000000     0.029910000000    -0.276691   
O        O      0.650690000000     0.888180000000     0.556840000000    -0.276691   
O        O      0.756100000000     0.781800000000     0.512000000000    -0.276691   


