data_IFENOY02_original

_audit_creation_method RASPA-1.0
_audit_creation_date 2022-1-29
_audit_author_name 'Felipe Lopes de Oliveira <felipe.lopes.oliveira@ibm.com>'

_cell_length_a    5.2854
_cell_length_b    18.8939
_cell_length_c    18.8939
_cell_angle_alpha 88.879
_cell_angle_beta  81.9596
_cell_angle_gamma 81.9597
_cell_volume      1849.87

_symmetry_cell_setting          triclinic
_symmetry_space_group_name_Hall 'P 1'
_symmetry_space_group_name_H-M  'P 1'
_symmetry_Int_Tables_number     1

_symmetry_equiv_pos_as_xyz 'x,y,z'

loop_
_atom_site_label
_atom_site_type_symbol
_atom_site_fract_x
_atom_site_fract_y
_atom_site_fract_z
_atom_site_charge
Zn       Zn     0.630670000000     0.058950000000     0.511350000000     0.454222   
Zn       Zn     0.200970000000     0.941050000000     0.488650000000     0.454222   
Zn       Zn     0.857970000000     0.511360000000     0.941050000000     0.454222   
Zn       Zn     0.310390000000     0.488640000000     0.058950000000     0.454222   
H        H      0.748100000000     0.187700000000     0.597900000000     0.057944   
H        H      0.203500000000     0.008100000000     0.633500000000     0.057944   
H        H      0.856200000000     0.952500000000     0.708100000000     0.057944   
H        H      0.599400000000     0.943200000000     0.814600000000     0.057944   
H        H      0.633100000000     0.014900000000     0.911100000000     0.057944   
H        H      0.905300000000     0.098400000000     0.899800000000     0.057944   
H        H      0.226200000000     0.161400000000     0.826000000000     0.057944   
H        H      0.639200000000     0.301100000000     0.639500000000     0.057944   
H        H      0.684700000000     0.409200000000     0.691800000000     0.057944   
H        H      0.679100000000     0.310300000000     0.881700000000     0.057944   
H        H      0.633300000000     0.203300000000     0.826900000000     0.057944   
H        H      0.533700000000     0.812300000000     0.402100000000     0.057944   
H        H      0.845100000000     0.991900000000     0.366500000000     0.057944   
H        H      0.516800000000     0.047500000000     0.291900000000     0.057944   
H        H      0.357200000000     0.056800000000     0.185400000000     0.057944   
H        H      0.559100000000     0.985100000000     0.088900000000     0.057944   
H        H      0.903500000000     0.901600000000     0.100200000000     0.057944   
H        H      0.213600000000     0.838600000000     0.174000000000     0.057944   
H        H      0.579800000000     0.698900000000     0.360500000000     0.057944   
H        H      0.785700000000     0.590800000000     0.308200000000     0.057944   
H        H      0.871100000000     0.689700000000     0.118300000000     0.057944   
H        H      0.663500000000     0.796700000000     0.173100000000     0.057944   
H        H      0.654000000000     0.597900000000     0.812300000000     0.057944   
H        H      0.163000000000     0.633500000000     0.991900000000     0.057944   
H        H      0.435700000000     0.708100000000     0.047500000000     0.057944   
H        H      0.586000000000     0.814600000000     0.056800000000     0.057944   
H        H      0.455800000000     0.911100000000     0.985100000000     0.057944   
H        H      0.194900000000     0.899800000000     0.901600000000     0.057944   
H        H      0.947800000000     0.826000000000     0.838600000000     0.057944   
H        H      0.721300000000     0.639500000000     0.698900000000     0.057944   
H        H      0.623500000000     0.691800000000     0.590800000000     0.057944   
H        H      0.439200000000     0.881700000000     0.689700000000     0.057944   
H        H      0.539800000000     0.826900000000     0.796700000000     0.057944   
H        H      0.064200000000     0.402100000000     0.187700000000     0.057944   
H        H      0.788400000000     0.366500000000     0.008100000000     0.057944   
H        H      0.191300000000     0.291900000000     0.952500000000     0.057944   
H        H      0.457400000000     0.185400000000     0.943200000000     0.057944   
H        H      0.352000000000     0.088900000000     0.014900000000     0.057944   
H        H      0.996300000000     0.100200000000     0.098400000000     0.057944   
H        H      0.612400000000     0.174000000000     0.161400000000     0.057944   
H        H      0.059700000000     0.360500000000     0.301100000000     0.057944   
H        H      0.906100000000     0.308200000000     0.409200000000     0.057944   
H        H      0.010600000000     0.118300000000     0.310300000000     0.057944   
H        H      0.163400000000     0.173100000000     0.203300000000     0.057944   
C        C      0.630040000000     0.164390000000     0.627530000000     0.00653741 
C        C      0.363000000000     0.090580000000     0.665620000000     0.00653741 
C        C      0.206260000000     0.038220000000     0.671660000000     0.00653741 
C        C      0.049430000000     0.031280000000     0.737460000000     0.00653741 
C        C      0.869420000000     0.981570000000     0.746190000000     0.00653741 
C        C      0.716560000000     0.976040000000     0.809440000000     0.00653741 
C        C      0.735000000000     0.020090000000     0.867510000000     0.00653741 
C        C      0.897900000000     0.069590000000     0.861010000000     0.00653741 
C        C      0.058510000000     0.078080000000     0.795100000000     0.00653741 
C        C      0.219480000000     0.131420000000     0.788020000000     0.00653741 
C        C      0.367230000000     0.137860000000     0.722880000000     0.00653741 
C        C      0.595240000000     0.246310000000     0.729610000000     0.00653741 
C        C      0.635700000000     0.304000000000     0.688600000000     0.00653741 
C        C      0.672700000000     0.367800000000     0.718800000000     0.00653741 
C        C      0.693010000000     0.366200000000     0.795180000000     0.00653741 
C        C      0.670500000000     0.309300000000     0.832900000000     0.00653741 
C        C      0.632800000000     0.245500000000     0.800700000000     0.00653741 
C        C      0.743300000000     0.432600000000     0.830800000000     0.00653741 
C        C      0.421960000000     0.835610000000     0.372470000000     0.00653741 
C        C      0.119200000000     0.909420000000     0.334380000000     0.00653741 
C        C      0.916140000000     0.961780000000     0.328340000000     0.00653741 
C        C      0.818170000000     0.968720000000     0.262540000000     0.00653741 
C        C      0.597180000000     0.018430000000     0.253810000000     0.00653741 
C        C      0.502040000000     0.023960000000     0.190560000000     0.00653741 
C        C      0.622600000000     0.979910000000     0.132490000000     0.00653741 
C        C      0.828500000000     0.930410000000     0.138990000000     0.00653741 
C        C      0.931690000000     0.921920000000     0.204900000000     0.00653741 
C        C      0.138920000000     0.868580000000     0.211980000000     0.00653741 
C        C      0.227970000000     0.862140000000     0.277120000000     0.00653741 
C        C      0.571160000000     0.753690000000     0.270390000000     0.00653741 
C        C      0.628300000000     0.696000000000     0.311400000000     0.00653741 
C        C      0.759300000000     0.632200000000     0.281200000000     0.00653741 
C        C      0.854390000000     0.633800000000     0.204820000000     0.00653741 
C        C      0.812700000000     0.690700000000     0.167100000000     0.00653741 
C        C      0.679000000000     0.754500000000     0.199300000000     0.00653741 
C        C      0.006700000000     0.567400000000     0.169200000000     0.00653741 
C        C      0.742430000000     0.627530000000     0.835610000000     0.00653741 
C        C      0.971380000000     0.665620000000     0.909420000000     0.00653741 
C        C      0.122080000000     0.671660000000     0.961780000000     0.00653741 
C        C      0.213110000000     0.737460000000     0.968720000000     0.00653741 
C        C      0.384390000000     0.746190000000     0.018430000000     0.00653741 
C        C      0.474000000000     0.809440000000     0.023960000000     0.00653741 
C        C      0.397490000000     0.867510000000     0.979910000000     0.00653741 
C        C      0.241090000000     0.861010000000     0.930410000000     0.00653741 
C        C      0.146390000000     0.795100000000     0.921920000000     0.00653741 
C        C      0.992500000000     0.788020000000     0.868580000000     0.00653741 
C        C      0.909890000000     0.722880000000     0.862140000000     0.00653741 
C        C      0.675150000000     0.729610000000     0.753690000000     0.00653741 
C        C      0.675700000000     0.688600000000     0.696000000000     0.00653741 
C        C      0.608500000000     0.718800000000     0.632200000000     0.00653741 
C        C      0.511810000000     0.795180000000     0.633800000000     0.00653741 
C        C      0.496600000000     0.832900000000     0.690700000000     0.00653741 
C        C      0.566500000000     0.800700000000     0.754500000000     0.00653741 
C        C      0.425900000000     0.830800000000     0.567400000000     0.00653741 
C        C      0.205570000000     0.372470000000     0.164390000000     0.00653741 
C        C      0.546420000000     0.334380000000     0.090580000000     0.00653741 
C        C      0.755520000000     0.328340000000     0.038220000000     0.00653741 
C        C      0.919290000000     0.262540000000     0.031280000000     0.00653741 
C        C      0.149010000000     0.253810000000     0.981570000000     0.00653741 
C        C      0.307400000000     0.190560000000     0.976040000000     0.00653741 
C        C      0.244910000000     0.132490000000     0.020090000000     0.00653741 
C        C      0.032510000000     0.138990000000     0.069590000000     0.00653741 
C        C      0.863410000000     0.204900000000     0.078080000000     0.00653741 
C        C      0.649100000000     0.211980000000     0.131420000000     0.00653741 
C        C      0.494910000000     0.277120000000     0.137860000000     0.00653741 
C        C      0.158450000000     0.270390000000     0.246310000000     0.00653741 
C        C      0.060300000000     0.311400000000     0.304000000000     0.00653741 
C        C      0.959500000000     0.281200000000     0.367800000000     0.00653741 
C        C      0.940790000000     0.204820000000     0.366200000000     0.00653741 
C        C      0.020200000000     0.167100000000     0.309300000000     0.00653741 
C        C      0.121700000000     0.199300000000     0.245500000000     0.00653741 
C        C      0.824100000000     0.169200000000     0.432600000000     0.00653741 
N        N      0.533880000000     0.109620000000     0.607220000000    -0.169662   
N        N      0.540560000000     0.184070000000     0.696210000000    -0.169662   
N        N      0.250720000000     0.890380000000     0.392780000000    -0.169662   
N        N      0.420840000000     0.815930000000     0.303790000000    -0.169662   
N        N      0.858900000000     0.607220000000     0.890380000000    -0.169662   
N        N      0.763230000000     0.696210000000     0.815930000000    -0.169662   
N        N      0.356500000000     0.392780000000     0.109620000000    -0.169662   
N        N      0.275370000000     0.303790000000     0.184070000000    -0.169662   
O        O      0.337010000000     0.030160000000     0.476820000000    -0.289985   
O        O      0.714790000000     0.442320000000     0.888100000000    -0.289985   
O        O      0.768400000000     0.488300000000     0.782900000000    -0.289985   
O        O      0.843990000000     0.969840000000     0.523180000000    -0.289985   
O        O      0.045210000000     0.557680000000     0.111900000000    -0.289985   
O        O      0.039600000000     0.511700000000     0.217100000000    -0.289985   
O        O      0.186170000000     0.476820000000     0.969840000000    -0.289985   
O        O      0.397110000000     0.888100000000     0.557680000000    -0.289985   
O        O      0.448700000000     0.782900000000     0.511700000000    -0.289985   
O        O      0.632830000000     0.523180000000     0.030160000000    -0.289985   
O        O      0.842890000000     0.111900000000     0.442320000000    -0.289985   
O        O      0.743300000000     0.217100000000     0.488300000000    -0.289985   


