data_IJANAJ_original

_audit_creation_method RASPA-1.0
_audit_creation_date 2022-1-30
_audit_author_name 'Felipe Lopes de Oliveira <felipe.lopes.oliveira@ibm.com>'

_cell_length_a    9.349
_cell_length_b    10.441
_cell_length_c    12.177
_cell_angle_alpha 109.956
_cell_angle_beta  103.388
_cell_angle_gamma 90.275
_cell_volume      1082.32

_symmetry_cell_setting          triclinic
_symmetry_space_group_name_Hall 'P 1'
_symmetry_space_group_name_H-M  'P 1'
_symmetry_Int_Tables_number     1

_symmetry_equiv_pos_as_xyz 'x,y,z'

loop_
_atom_site_label
_atom_site_type_symbol
_atom_site_fract_x
_atom_site_fract_y
_atom_site_fract_z
_atom_site_charge
Zn       Zn     0.260550000000     0.073080000000     0.486560000000     0.437266   
Zn       Zn     0.739450000000     0.926920000000     0.513440000000     0.437266   
Zn       Zn     0.500000000000     0.500000000000     0.500000000000     0.437266   
H        H      0.444500000000     0.082700000000     0.173200000000     0.0535467  
H        H      0.609200000000     0.067700000000     0.054900000000     0.0535467  
H        H      0.859600000000     0.117800000000     0.142000000000     0.0535467  
H        H      0.110000000000     0.176500000000     0.676000000000     0.0535467  
H        H      0.153800000000     0.274400000000     0.882100000000     0.0535467  
H        H      0.587600000000     0.287200000000     0.901500000000     0.0535467  
H        H      0.532600000000     0.191200000000     0.695300000000     0.0535467  
H        H      0.198700000000     0.317000000000     0.064400000000     0.0535467  
H        H      0.249100000000     0.391200000000     0.269000000000     0.0535467  
H        H      0.662200000000     0.483900000000     0.296900000000     0.0535467  
H        H      0.623700000000     0.404100000000     0.091500000000     0.0535467  
H        H      0.555500000000     0.917300000000     0.826800000000     0.0535467  
H        H      0.390800000000     0.932300000000     0.945100000000     0.0535467  
H        H      0.140400000000     0.882200000000     0.858000000000     0.0535467  
H        H      0.890000000000     0.823500000000     0.324000000000     0.0535467  
H        H      0.846200000000     0.725600000000     0.117900000000     0.0535467  
H        H      0.412400000000     0.712800000000     0.098500000000     0.0535467  
H        H      0.467400000000     0.808800000000     0.304700000000     0.0535467  
H        H      0.801300000000     0.683000000000     0.935600000000     0.0535467  
H        H      0.750900000000     0.608800000000     0.731000000000     0.0535467  
H        H      0.337800000000     0.516100000000     0.703100000000     0.0535467  
H        H      0.376300000000     0.595900000000     0.908500000000     0.0535467  
C        C      0.846950000000     0.159780000000     0.315030000000     0.0350529  
C        C      0.748400000000     0.173210000000     0.388080000000     0.0350529  
C        C      0.596790000000     0.149230000000     0.334240000000     0.0350529  
C        C      0.544980000000     0.104950000000     0.208940000000     0.0350529  
C        C      0.643980000000     0.094350000000     0.138160000000     0.0350529  
C        C      0.794050000000     0.122970000000     0.190060000000     0.0350529  
C        C      0.011640000000     0.176760000000     0.366150000000     0.0350529  
C        C      0.804790000000     0.213600000000     0.523200000000     0.0350529  
C        C      0.487860000000     0.173130000000     0.411280000000     0.0350529  
C        C      0.207000000000     0.198600000000     0.722060000000     0.0350529  
C        C      0.232700000000     0.257500000000     0.846220000000     0.0350529  
C        C      0.377290000000     0.291370000000     0.917410000000     0.0350529  
C        C      0.489500000000     0.265350000000     0.857830000000     0.0350529  
C        C      0.455720000000     0.206980000000     0.733610000000     0.0350529  
C        C      0.407380000000     0.349130000000     0.051440000000     0.0350529  
C        C      0.294900000000     0.348600000000     0.109630000000     0.0350529  
C        C      0.326100000000     0.394500000000     0.233260000000     0.0350529  
C        C      0.567900000000     0.447820000000     0.249770000000     0.0350529  
C        C      0.544900000000     0.400680000000     0.125240000000     0.0350529  
C        C      0.153050000000     0.840220000000     0.684970000000     0.0350529  
C        C      0.251600000000     0.826790000000     0.611920000000     0.0350529  
C        C      0.403210000000     0.850770000000     0.665760000000     0.0350529  
C        C      0.455020000000     0.895050000000     0.791060000000     0.0350529  
C        C      0.356020000000     0.905650000000     0.861840000000     0.0350529  
C        C      0.205950000000     0.877030000000     0.809940000000     0.0350529  
C        C      0.988360000000     0.823240000000     0.633850000000     0.0350529  
C        C      0.195210000000     0.786400000000     0.476800000000     0.0350529  
C        C      0.512140000000     0.826870000000     0.588720000000     0.0350529  
C        C      0.793000000000     0.801400000000     0.277940000000     0.0350529  
C        C      0.767300000000     0.742500000000     0.153780000000     0.0350529  
C        C      0.622710000000     0.708630000000     0.082590000000     0.0350529  
C        C      0.510500000000     0.734650000000     0.142170000000     0.0350529  
C        C      0.544280000000     0.793020000000     0.266390000000     0.0350529  
C        C      0.592620000000     0.650870000000     0.948560000000     0.0350529  
C        C      0.705100000000     0.651400000000     0.890370000000     0.0350529  
C        C      0.673900000000     0.605500000000     0.766740000000     0.0350529  
C        C      0.432100000000     0.552180000000     0.750230000000     0.0350529  
C        C      0.455100000000     0.599320000000     0.874760000000     0.0350529  
N        N      0.316480000000     0.172150000000     0.665850000000    -0.156872   
N        N      0.460490000000     0.443900000000     0.305620000000    -0.156872   
N        N      0.683520000000     0.827850000000     0.334150000000    -0.156872   
N        N      0.539510000000     0.556100000000     0.694380000000    -0.156872   
O        O      0.056980000000     0.112850000000     0.437580000000    -0.266195   
O        O      0.090170000000     0.244990000000     0.333520000000    -0.266195   
O        O      0.872320000000     0.328190000000     0.581560000000    -0.266195   
O        O      0.776890000000     0.129100000000     0.570690000000    -0.266195   
O        O      0.486170000000     0.287990000000     0.487330000000    -0.266195   
O        O      0.401210000000     0.069330000000     0.391900000000    -0.266195   
O        O      0.943020000000     0.887150000000     0.562420000000    -0.266195   
O        O      0.909830000000     0.755010000000     0.666480000000    -0.266195   
O        O      0.127680000000     0.671810000000     0.418440000000    -0.266195   
O        O      0.223110000000     0.870900000000     0.429310000000    -0.266195   
O        O      0.513830000000     0.712010000000     0.512670000000    -0.266195   
O        O      0.598790000000     0.930670000000     0.608100000000    -0.266195   


