data_IJEXUR_original

_audit_creation_method RASPA-1.0
_audit_creation_date 2022-1-29
_audit_author_name 'Felipe Lopes de Oliveira <felipe.lopes.oliveira@ibm.com>'

_cell_length_a    10.7882
_cell_length_b    12.3072
_cell_length_c    14.2893
_cell_angle_alpha 83.183
_cell_angle_beta  69.59
_cell_angle_gamma 65.174
_cell_volume      1612.94

_symmetry_cell_setting          triclinic
_symmetry_space_group_name_Hall 'P 1'
_symmetry_space_group_name_H-M  'P 1'
_symmetry_Int_Tables_number     1

_symmetry_equiv_pos_as_xyz 'x,y,z'

loop_
_atom_site_label
_atom_site_type_symbol
_atom_site_fract_x
_atom_site_fract_y
_atom_site_fract_z
_atom_site_charge
Zn       Zn     0.248430000000     0.445680000000     0.961800000000     0.452801   
Zn       Zn     0.210810000000     0.203920000000     0.093210000000     0.452801   
Zn       Zn     0.751570000000     0.554320000000     0.038200000000     0.452801   
Zn       Zn     0.789190000000     0.796080000000     0.906790000000     0.452801   
Zn       Zn     0.500000000000     0.500000000000     0.000000000000     0.452801   
H        H      0.501900000000     0.681400000000     0.022300000000     0.085192   
H        H      0.074000000000     0.355200000000     0.003100000000     0.085192   
H        H      0.454000000000     0.284700000000     0.329700000000     0.085192   
H        H      0.493100000000     0.313600000000     0.162000000000     0.085192   
H        H      0.328200000000     0.658600000000     0.199700000000     0.085192   
H        H      0.380900000000     0.313100000000     0.617300000000     0.085192   
H        H      0.860500000000     0.773800000000     0.127400000000     0.085192   
H        H      0.202000000000     0.857500000000     0.058200000000     0.085192   
H        H      0.224200000000     0.639800000000     0.812000000000     0.085192   
H        H      0.284000000000     0.639200000000     0.367900000000     0.085192   
H        H      0.125500000000     0.226400000000     0.455500000000     0.085192   
H        H      0.012800000000     0.542600000000     0.325800000000     0.085192   
H        H      0.792400000000     0.100500000000     0.194400000000     0.085192   
H        H      0.197600000000     0.136300000000     0.307000000000     0.085192   
H        H      0.349200000000     0.296900000000     0.785000000000     0.085192   
H        H      0.249800000000     0.666800000000     0.647300000000     0.085192   
H        H      0.091700000000     0.442900000000     0.177500000000     0.085192   
H        H      0.498100000000     0.318600000000     0.977700000000     0.085192   
H        H      0.926000000000     0.644800000000     0.996900000000     0.085192   
H        H      0.546000000000     0.715300000000     0.670300000000     0.085192   
H        H      0.506900000000     0.686400000000     0.838000000000     0.085192   
H        H      0.671800000000     0.341400000000     0.800300000000     0.085192   
H        H      0.619100000000     0.686900000000     0.382700000000     0.085192   
H        H      0.139500000000     0.226200000000     0.872600000000     0.085192   
H        H      0.798000000000     0.142500000000     0.941800000000     0.085192   
H        H      0.775800000000     0.360200000000     0.188000000000     0.085192   
H        H      0.716000000000     0.360800000000     0.632100000000     0.085192   
H        H      0.874500000000     0.773600000000     0.544500000000     0.085192   
H        H      0.987200000000     0.457400000000     0.674200000000     0.085192   
H        H      0.207600000000     0.899500000000     0.805600000000     0.085192   
H        H      0.802400000000     0.863700000000     0.693000000000     0.085192   
H        H      0.650800000000     0.703100000000     0.215000000000     0.085192   
H        H      0.750200000000     0.333200000000     0.352700000000     0.085192   
H        H      0.908300000000     0.557100000000     0.822500000000     0.085192   
C        C      0.157500000000     0.674200000000     0.036100000000     0.0275963  
C        C      0.429000000000     0.361400000000     0.304600000000     0.0275963  
C        C      0.451400000000     0.380500000000     0.204500000000     0.0275963  
C        C      0.047800000000     0.796400000000     0.085500000000     0.0275963  
C        C      0.354900000000     0.582500000000     0.225800000000     0.0275963  
C        C      0.347700000000     0.380800000000     0.656900000000     0.0275963  
C        C      0.897300000000     0.829800000000     0.127600000000     0.0275963  
C        C      0.103000000000     0.877400000000     0.085000000000     0.0275963  
C        C      0.004900000000     0.992900000000     0.126600000000     0.0275963  
C        C      0.254300000000     0.573500000000     0.771500000000     0.0275963  
C        C      0.801800000000     0.943500000000     0.169400000000     0.0275963  
C        C      0.060700000000     0.394700000000     0.406900000000     0.0275963  
C        C      0.328700000000     0.571400000000     0.326100000000     0.0275963  
C        C      0.117300000000     0.272000000000     0.399500000000     0.0275963  
C        C      0.062100000000     0.082200000000     0.123000000000     0.0275963  
C        C      0.050900000000     0.459400000000     0.322700000000     0.0275963  
C        C      0.317200000000     0.493600000000     0.615600000000     0.0275963  
C        C      0.854700000000     0.023600000000     0.168000000000     0.0275963  
C        C      0.160200000000     0.219500000000     0.311300000000     0.0275963  
C        C      0.327900000000     0.371800000000     0.756700000000     0.0275963  
C        C      0.368600000000     0.459700000000     0.364600000000     0.0275963  
C        C      0.270300000000     0.590800000000     0.673600000000     0.0275963  
C        C      0.097800000000     0.399500000000     0.234800000000     0.0275963  
C        C      0.842500000000     0.325800000000     0.963900000000     0.0275963  
C        C      0.571000000000     0.638600000000     0.695400000000     0.0275963  
C        C      0.548600000000     0.619500000000     0.795500000000     0.0275963  
C        C      0.952200000000     0.203600000000     0.914500000000     0.0275963  
C        C      0.645100000000     0.417500000000     0.774200000000     0.0275963  
C        C      0.652300000000     0.619200000000     0.343100000000     0.0275963  
C        C      0.102700000000     0.170200000000     0.872400000000     0.0275963  
C        C      0.897000000000     0.122600000000     0.915000000000     0.0275963  
C        C      0.995100000000     0.007100000000     0.873400000000     0.0275963  
C        C      0.745700000000     0.426500000000     0.228500000000     0.0275963  
C        C      0.198200000000     0.056500000000     0.830600000000     0.0275963  
C        C      0.939300000000     0.605300000000     0.593100000000     0.0275963  
C        C      0.671300000000     0.428600000000     0.673900000000     0.0275963  
C        C      0.882700000000     0.728000000000     0.600500000000     0.0275963  
C        C      0.937900000000     0.917800000000     0.877000000000     0.0275963  
C        C      0.949100000000     0.540600000000     0.677300000000     0.0275963  
C        C      0.682800000000     0.506400000000     0.384400000000     0.0275963  
C        C      0.145300000000     0.976400000000     0.832000000000     0.0275963  
C        C      0.839800000000     0.780500000000     0.688700000000     0.0275963  
C        C      0.672100000000     0.628200000000     0.243300000000     0.0275963  
C        C      0.631400000000     0.540300000000     0.635400000000     0.0275963  
C        C      0.729700000000     0.409200000000     0.326400000000     0.0275963  
C        C      0.902200000000     0.600500000000     0.765200000000     0.0275963  
S        S      0.603900000000     0.985700000000     0.223400000000     0.599326   
S        S      0.396100000000     0.014300000000     0.776600000000     0.599326   
N        N      0.418200000000     0.486800000000     0.164100000000    -0.146926   
N        N      0.279100000000     0.467400000000     0.813400000000    -0.146926   
N        N      0.152300000000     0.280600000000     0.228300000000    -0.146926   
N        N      0.332500000000     0.518400000000     0.511600000000    -0.146926   
N        N      0.352000000000     0.435700000000     0.469300000000    -0.146926   
N        N      0.016600000000     0.445600000000     0.500200000000    -0.146926   
N        N      0.581800000000     0.513200000000     0.835900000000    -0.146926   
N        N      0.720900000000     0.532600000000     0.186600000000    -0.146926   
N        N      0.847700000000     0.719400000000     0.771700000000    -0.146926   
N        N      0.667500000000     0.481600000000     0.488400000000    -0.146926   
N        N      0.648000000000     0.564300000000     0.530700000000    -0.146926   
N        N      0.983400000000     0.554400000000     0.499800000000    -0.146926   
O        O      0.578800000000     0.910400000000     0.174500000000    -0.325861   
O        O      0.572300000000     0.954100000000     0.320500000000    -0.325861   
O        O      0.535600000000     0.101900000000     0.193200000000    -0.325861   
O        O      0.102500000000     0.604300000000     0.031100000000    -0.325861   
O        O      0.291200000000     0.649500000000     0.004100000000    -0.325861   
O        O      0.575500000000     0.614800000000     0.010000000000    -0.325861   
O        O      0.155500000000     0.337300000000     0.009900000000    -0.325861   
O        O      0.199700000000     0.049400000000     0.095700000000    -0.325861   
O        O      0.978300000000     0.187600000000     0.143700000000    -0.325861   
O        O      0.421200000000     0.089600000000     0.825500000000    -0.325861   
O        O      0.427700000000     0.045900000000     0.679500000000    -0.325861   
O        O      0.464400000000     0.898100000000     0.806800000000    -0.325861   
O        O      0.897500000000     0.395700000000     0.968900000000    -0.325861   
O        O      0.708800000000     0.350500000000     0.995900000000    -0.325861   
O        O      0.424500000000     0.385200000000     0.990000000000    -0.325861   
O        O      0.844500000000     0.662700000000     0.990100000000    -0.325861   
O        O      0.800300000000     0.950600000000     0.904300000000    -0.325861   
O        O      0.021700000000     0.812400000000     0.856300000000    -0.325861   


