data_IRMOF-6_original

_audit_creation_method RASPA-1.0
_audit_creation_date 2022-1-31
_audit_author_name 'Felipe Lopes de Oliveira <felipe.lopes.oliveira@ibm.com>'

_cell_length_a    18.2731
_cell_length_b    18.2731
_cell_length_c    18.2731
_cell_angle_alpha 60
_cell_angle_beta  60
_cell_angle_gamma 60
_cell_volume      4314.43

_symmetry_cell_setting          triclinic
_symmetry_space_group_name_Hall 'P 1'
_symmetry_space_group_name_H-M  'P 1'
_symmetry_Int_Tables_number     1

_symmetry_equiv_pos_as_xyz 'x,y,z'

loop_
_atom_site_label
_atom_site_type_symbol
_atom_site_fract_x
_atom_site_fract_y
_atom_site_fract_z
_atom_site_charge
Zn       Zn     0.706460000000     0.706440000000     0.880660000000     0.469953   
Zn       Zn     0.706460000000     0.880660000000     0.706440000000     0.469953   
Zn       Zn     0.119340000000     0.293560000000     0.293560000000     0.469953   
Zn       Zn     0.293570000000     0.293550000000     0.119330000000     0.469953   
Zn       Zn     0.293570000000     0.293550000000     0.293550000000     0.469953   
Zn       Zn     0.293570000000     0.119330000000     0.293550000000     0.469953   
Zn       Zn     0.880680000000     0.706440000000     0.706440000000     0.469953   
Zn       Zn     0.706450000000     0.706450000000     0.706430000000     0.469953   
H        H      0.497970000000     0.125610000000     0.791890000000     0.0630308  
H        H      0.791890000000     0.584530000000     0.497970000000     0.0630308  
H        H      0.497970000000     0.584530000000     0.125610000000     0.0630308  
H        H      0.125610000000     0.791890000000     0.497970000000     0.0630308  
H        H      0.497970000000     0.791890000000     0.584530000000     0.0630308  
H        H      0.791890000000     0.497970000000     0.125610000000     0.0630308  
H        H      0.502030000000     0.208110000000     0.874390000000     0.0630308  
H        H      0.874390000000     0.415470000000     0.502030000000     0.0630308  
H        H      0.874390000000     0.502030000000     0.208110000000     0.0630308  
H        H      0.502030000000     0.874390000000     0.415470000000     0.0630308  
H        H      0.208110000000     0.874390000000     0.502030000000     0.0630308  
H        H      0.502030000000     0.415470000000     0.208110000000     0.0630308  
H        H      0.415470000000     0.208110000000     0.874390000000     0.0630308  
H        H      0.874390000000     0.502030000000     0.415470000000     0.0630308  
H        H      0.415470000000     0.502030000000     0.208110000000     0.0630308  
H        H      0.208110000000     0.874390000000     0.415470000000     0.0630308  
H        H      0.415470000000     0.874390000000     0.502030000000     0.0630308  
H        H      0.874390000000     0.415470000000     0.208110000000     0.0630308  
H        H      0.584530000000     0.125610000000     0.791890000000     0.0630308  
H        H      0.791890000000     0.497970000000     0.584530000000     0.0630308  
H        H      0.791890000000     0.584530000000     0.125610000000     0.0630308  
H        H      0.584530000000     0.791890000000     0.497970000000     0.0630308  
H        H      0.125610000000     0.791890000000     0.584530000000     0.0630308  
H        H      0.584530000000     0.497970000000     0.125610000000     0.0630308  
H        H      0.943710000000     0.149390000000     0.453450000000     0.0630308  
H        H      0.851300000000     0.060940000000     0.543880000000     0.0630308  
H        H      0.453450000000     0.453450000000     0.943710000000     0.0630308  
H        H      0.543880000000     0.543880000000     0.851300000000     0.0630308  
H        H      0.456120000000     0.148700000000     0.456120000000     0.0630308  
H        H      0.543880000000     0.060940000000     0.543880000000     0.0630308  
H        H      0.148700000000     0.456120000000     0.939060000000     0.0630308  
H        H      0.060940000000     0.543880000000     0.851300000000     0.0630308  
H        H      0.060940000000     0.543880000000     0.543880000000     0.0630308  
H        H      0.149390000000     0.453450000000     0.453450000000     0.0630308  
H        H      0.456120000000     0.939060000000     0.148700000000     0.0630308  
H        H      0.543880000000     0.851300000000     0.060940000000     0.0630308  
C        C      0.612010000000     0.887990000000     0.887990000000     0.0349217  
C        C      0.556480000000     0.943520000000     0.943520000000     0.0349217  
C        C      0.528170000000     0.029650000000     0.914010000000     0.0349217  
C        C      0.526640000000     0.112660000000     0.834060000000     0.0349217  
C        C      0.528170000000     0.914010000000     0.029650000000     0.0349217  
C        C      0.887990000000     0.612010000000     0.612010000000     0.0349217  
C        C      0.943520000000     0.556480000000     0.556480000000     0.0349217  
C        C      0.914010000000     0.528170000000     0.528170000000     0.0349217  
C        C      0.834060000000     0.526640000000     0.526640000000     0.0349217  
C        C      0.029650000000     0.528170000000     0.528170000000     0.0349217  
C        C      0.612010000000     0.612010000000     0.887990000000     0.0349217  
C        C      0.556480000000     0.556480000000     0.943520000000     0.0349217  
C        C      0.528170000000     0.528170000000     0.029650000000     0.0349217  
C        C      0.526640000000     0.526640000000     0.112660000000     0.0349217  
C        C      0.528170000000     0.528170000000     0.914010000000     0.0349217  
C        C      0.887990000000     0.887990000000     0.612010000000     0.0349217  
C        C      0.943520000000     0.943520000000     0.556480000000     0.0349217  
C        C      0.914010000000     0.029650000000     0.528170000000     0.0349217  
C        C      0.029650000000     0.914010000000     0.528170000000     0.0349217  
C        C      0.112660000000     0.834060000000     0.526640000000     0.0349217  
C        C      0.612010000000     0.887990000000     0.612010000000     0.0349217  
C        C      0.556480000000     0.943520000000     0.556480000000     0.0349217  
C        C      0.528170000000     0.914010000000     0.528170000000     0.0349217  
C        C      0.526640000000     0.834060000000     0.526640000000     0.0349217  
C        C      0.528170000000     0.029650000000     0.528170000000     0.0349217  
C        C      0.887990000000     0.612010000000     0.887990000000     0.0349217  
C        C      0.943520000000     0.556480000000     0.943520000000     0.0349217  
C        C      0.914010000000     0.528170000000     0.029650000000     0.0349217  
C        C      0.834060000000     0.526640000000     0.112660000000     0.0349217  
C        C      0.029650000000     0.528170000000     0.914010000000     0.0349217  
C        C      0.387990000000     0.112010000000     0.112010000000     0.0349217  
C        C      0.443520000000     0.056480000000     0.056480000000     0.0349217  
C        C      0.471830000000     0.970350000000     0.085990000000     0.0349217  
C        C      0.471830000000     0.085990000000     0.970350000000     0.0349217  
C        C      0.473360000000     0.165940000000     0.887340000000     0.0349217  
C        C      0.112010000000     0.387990000000     0.387990000000     0.0349217  
C        C      0.056480000000     0.443520000000     0.443520000000     0.0349217  
C        C      0.970350000000     0.471830000000     0.471830000000     0.0349217  
C        C      0.887340000000     0.473360000000     0.473360000000     0.0349217  
C        C      0.085990000000     0.471830000000     0.471830000000     0.0349217  
C        C      0.112010000000     0.387990000000     0.112010000000     0.0349217  
C        C      0.056480000000     0.443520000000     0.056480000000     0.0349217  
C        C      0.085990000000     0.471830000000     0.970350000000     0.0349217  
C        C      0.970350000000     0.471830000000     0.085990000000     0.0349217  
C        C      0.887340000000     0.473360000000     0.165940000000     0.0349217  
C        C      0.387990000000     0.112010000000     0.387990000000     0.0349217  
C        C      0.443520000000     0.056480000000     0.443520000000     0.0349217  
C        C      0.471830000000     0.970350000000     0.471830000000     0.0349217  
C        C      0.473360000000     0.887340000000     0.473360000000     0.0349217  
C        C      0.471830000000     0.085990000000     0.471830000000     0.0349217  
C        C      0.112010000000     0.112010000000     0.387990000000     0.0349217  
C        C      0.056480000000     0.056480000000     0.443520000000     0.0349217  
C        C      0.970350000000     0.085990000000     0.471830000000     0.0349217  
C        C      0.085990000000     0.970350000000     0.471830000000     0.0349217  
C        C      0.165940000000     0.887340000000     0.473360000000     0.0349217  
C        C      0.387990000000     0.387990000000     0.112010000000     0.0349217  
C        C      0.443520000000     0.443520000000     0.056480000000     0.0349217  
C        C      0.471830000000     0.471830000000     0.970350000000     0.0349217  
C        C      0.471830000000     0.471830000000     0.085990000000     0.0349217  
C        C      0.473360000000     0.473360000000     0.165940000000     0.0349217  
O        O      0.750000000000     0.750000000000     0.750000000000    -0.312463   
O        O      0.633410000000     0.803710000000     0.929470000000    -0.312463   
O        O      0.633410000000     0.929470000000     0.803710000000    -0.312463   
O        O      0.929470000000     0.633410000000     0.633410000000    -0.312463   
O        O      0.803710000000     0.633410000000     0.633410000000    -0.312463   
O        O      0.633410000000     0.633410000000     0.803710000000    -0.312463   
O        O      0.633410000000     0.633410000000     0.929470000000    -0.312463   
O        O      0.929470000000     0.803710000000     0.633410000000    -0.312463   
O        O      0.803710000000     0.929470000000     0.633410000000    -0.312463   
O        O      0.633410000000     0.929470000000     0.633410000000    -0.312463   
O        O      0.633410000000     0.803710000000     0.633410000000    -0.312463   
O        O      0.929470000000     0.633410000000     0.803710000000    -0.312463   
O        O      0.803710000000     0.633410000000     0.929470000000    -0.312463   
O        O      0.250000000000     0.250000000000     0.250000000000    -0.312463   
O        O      0.366590000000     0.196290000000     0.070530000000    -0.312463   
O        O      0.366590000000     0.070530000000     0.196290000000    -0.312463   
O        O      0.196290000000     0.366590000000     0.366590000000    -0.312463   
O        O      0.070530000000     0.366590000000     0.366590000000    -0.312463   
O        O      0.070530000000     0.366590000000     0.196290000000    -0.312463   
O        O      0.196290000000     0.366590000000     0.070530000000    -0.312463   
O        O      0.366590000000     0.196290000000     0.366590000000    -0.312463   
O        O      0.366590000000     0.070530000000     0.366590000000    -0.312463   
O        O      0.196290000000     0.070530000000     0.366590000000    -0.312463   
O        O      0.070530000000     0.196290000000     0.366590000000    -0.312463   
O        O      0.366590000000     0.366590000000     0.196290000000    -0.312463   
O        O      0.366590000000     0.366590000000     0.070530000000    -0.312463   


