data_IRMOF-7_original

_audit_creation_method RASPA-1.0
_audit_creation_date 2022-1-30
_audit_author_name 'Felipe Lopes de Oliveira <felipe.lopes.oliveira@ibm.com>'

_cell_length_a    12.9144
_cell_length_b    12.9144
_cell_length_c    12.9144
_cell_angle_alpha 90
_cell_angle_beta  90
_cell_angle_gamma 90
_cell_volume      2153.89

_symmetry_cell_setting          triclinic
_symmetry_space_group_name_Hall 'P 1'
_symmetry_space_group_name_H-M  'P 1'
_symmetry_Int_Tables_number     1

_symmetry_equiv_pos_as_xyz 'x,y,z'

loop_
_atom_site_label
_atom_site_type_symbol
_atom_site_fract_x
_atom_site_fract_y
_atom_site_fract_z
_atom_site_charge
Zn       Zn     0.586620000000     0.586620000000     0.586620000000     0.458693   
Zn       Zn     0.413380000000     0.413380000000     0.586620000000     0.458693   
Zn       Zn     0.413380000000     0.586620000000     0.413380000000     0.458693   
Zn       Zn     0.586620000000     0.413380000000     0.413380000000     0.458693   
H        H      0.824140000000     0.684920000000     0.500000000000     0.0602176  
H        H      0.908420000000     0.844800000000     0.500000000000     0.0602176  
H        H      0.175860000000     0.684920000000     0.500000000000     0.0602176  
H        H      0.091580000000     0.844800000000     0.500000000000     0.0602176  
H        H      0.500000000000     0.175860000000     0.315080000000     0.0602176  
H        H      0.500000000000     0.091580000000     0.155200000000     0.0602176  
H        H      0.500000000000     0.824140000000     0.315080000000     0.0602176  
H        H      0.500000000000     0.908420000000     0.155200000000     0.0602176  
H        H      0.684920000000     0.500000000000     0.824140000000     0.0602176  
H        H      0.844800000000     0.500000000000     0.908420000000     0.0602176  
H        H      0.684920000000     0.500000000000     0.175860000000     0.0602176  
H        H      0.844800000000     0.500000000000     0.091580000000     0.0602176  
H        H      0.500000000000     0.085040000000     0.658080000000     0.0602176  
H        H      0.500000000000     0.914960000000     0.658080000000     0.0602176  
H        H      0.341920000000     0.500000000000     0.914960000000     0.0602176  
H        H      0.341920000000     0.500000000000     0.085040000000     0.0602176  
H        H      0.914960000000     0.341920000000     0.500000000000     0.0602176  
H        H      0.085040000000     0.341920000000     0.500000000000     0.0602176  
C        C      0.785880000000     0.500000000000     0.500000000000     0.0314185  
C        C      0.899060000000     0.500000000000     0.500000000000     0.0314185  
C        C      0.952420000000     0.594780000000     0.500000000000     0.0314185  
C        C      0.896120000000     0.687360000000     0.500000000000     0.0314185  
C        C      0.945840000000     0.783280000000     0.500000000000     0.0314185  
C        C      0.214120000000     0.500000000000     0.500000000000     0.0314185  
C        C      0.100940000000     0.500000000000     0.500000000000     0.0314185  
C        C      0.047580000000     0.405220000000     0.500000000000     0.0314185  
C        C      0.047580000000     0.594780000000     0.500000000000     0.0314185  
C        C      0.103880000000     0.687360000000     0.500000000000     0.0314185  
C        C      0.054160000000     0.783280000000     0.500000000000     0.0314185  
C        C      0.952420000000     0.405220000000     0.500000000000     0.0314185  
C        C      0.500000000000     0.785880000000     0.500000000000     0.0314185  
C        C      0.500000000000     0.899060000000     0.500000000000     0.0314185  
C        C      0.500000000000     0.952420000000     0.594780000000     0.0314185  
C        C      0.500000000000     0.214120000000     0.500000000000     0.0314185  
C        C      0.500000000000     0.100940000000     0.500000000000     0.0314185  
C        C      0.500000000000     0.047580000000     0.405220000000     0.0314185  
C        C      0.500000000000     0.103880000000     0.312640000000     0.0314185  
C        C      0.500000000000     0.054160000000     0.216720000000     0.0314185  
C        C      0.500000000000     0.047580000000     0.594780000000     0.0314185  
C        C      0.500000000000     0.952420000000     0.405220000000     0.0314185  
C        C      0.500000000000     0.896120000000     0.312640000000     0.0314185  
C        C      0.500000000000     0.945840000000     0.216720000000     0.0314185  
C        C      0.500000000000     0.500000000000     0.785880000000     0.0314185  
C        C      0.500000000000     0.500000000000     0.899060000000     0.0314185  
C        C      0.594780000000     0.500000000000     0.952420000000     0.0314185  
C        C      0.687360000000     0.500000000000     0.896120000000     0.0314185  
C        C      0.783280000000     0.500000000000     0.945840000000     0.0314185  
C        C      0.500000000000     0.500000000000     0.214120000000     0.0314185  
C        C      0.500000000000     0.500000000000     0.100940000000     0.0314185  
C        C      0.405220000000     0.500000000000     0.047580000000     0.0314185  
C        C      0.594780000000     0.500000000000     0.047580000000     0.0314185  
C        C      0.687360000000     0.500000000000     0.103880000000     0.0314185  
C        C      0.783280000000     0.500000000000     0.054160000000     0.0314185  
C        C      0.405220000000     0.500000000000     0.952420000000     0.0314185  
O        O      0.500000000000     0.500000000000     0.500000000000    -0.31152    
O        O      0.736780000000     0.559040000000     0.559040000000    -0.31152    
O        O      0.263220000000     0.440960000000     0.559040000000    -0.31152    
O        O      0.263220000000     0.559040000000     0.440960000000    -0.31152    
O        O      0.736780000000     0.440960000000     0.440960000000    -0.31152    
O        O      0.559040000000     0.736780000000     0.559040000000    -0.31152    
O        O      0.559040000000     0.263220000000     0.440960000000    -0.31152    
O        O      0.440960000000     0.263220000000     0.559040000000    -0.31152    
O        O      0.440960000000     0.736780000000     0.440960000000    -0.31152    
O        O      0.559040000000     0.559040000000     0.736780000000    -0.31152    
O        O      0.440960000000     0.559040000000     0.263220000000    -0.31152    
O        O      0.559040000000     0.440960000000     0.263220000000    -0.31152    
O        O      0.440960000000     0.440960000000     0.736780000000    -0.31152    


