data_ISEQIH_original

_audit_creation_method RASPA-1.0
_audit_creation_date 2022-1-28
_audit_author_name 'Felipe Lopes de Oliveira <felipe.lopes.oliveira@ibm.com>'

_cell_length_a    5.9466
_cell_length_b    10.2247
_cell_length_c    16.6496
_cell_angle_alpha 72.213
_cell_angle_beta  79.718
_cell_angle_gamma 89.791
_cell_volume      947.062

_symmetry_cell_setting          triclinic
_symmetry_space_group_name_Hall 'P 1'
_symmetry_space_group_name_H-M  'P 1'
_symmetry_Int_Tables_number     1

_symmetry_equiv_pos_as_xyz 'x,y,z'

loop_
_atom_site_label
_atom_site_type_symbol
_atom_site_fract_x
_atom_site_fract_y
_atom_site_fract_z
_atom_site_charge
Ca       Ca     0.755950000000     0.879520000000     0.996330000000     1.45623    
Ca       Ca     0.050620000000     0.180550000000     0.395680000000     1.45623    
Ca       Ca     0.451850000000     0.579020000000     0.603350000000     1.45623    
Ca       Ca     0.244050000000     0.120480000000     0.003670000000     1.45623    
Ca       Ca     0.949380000000     0.819450000000     0.604320000000     1.45623    
Ca       Ca     0.548150000000     0.420980000000     0.396650000000     1.45623    
H        H      0.296000000000     0.352500000000     0.742800000000     0.161743   
H        H      0.158100000000     0.018700000000     0.359600000000     0.161743   
H        H      0.757900000000     0.249200000000     0.792200000000     0.161743   
H        H      0.916700000000     0.137600000000     0.765800000000     0.161743   
H        H      0.019300000000     0.190300000000     0.634100000000     0.161743   
H        H      0.844300000000     0.308000000000     0.609300000000     0.161743   
H        H      0.487600000000     0.820300000000     0.370600000000     0.161743   
H        H      0.659100000000     0.916400000000     0.394100000000     0.161743   
H        H      0.741900000000     0.029000000000     0.209300000000     0.161743   
H        H      0.585100000000     0.890200000000     0.240500000000     0.161743   
H        H      0.704000000000     0.647500000000     0.257200000000     0.161743   
H        H      0.841900000000     0.981300000000     0.640400000000     0.161743   
H        H      0.242100000000     0.750800000000     0.207800000000     0.161743   
H        H      0.083300000000     0.862400000000     0.234200000000     0.161743   
H        H      0.980700000000     0.809700000000     0.365900000000     0.161743   
H        H      0.155700000000     0.692000000000     0.390700000000     0.161743   
H        H      0.512400000000     0.179700000000     0.629400000000     0.161743   
H        H      0.340900000000     0.083600000000     0.605900000000     0.161743   
H        H      0.258100000000     0.971000000000     0.790700000000     0.161743   
H        H      0.414900000000     0.109800000000     0.759500000000     0.161743   
C        C      0.020800000000     0.202800000000     0.858500000000     0.10164    
C        C      0.919100000000     0.226000000000     0.778600000000     0.10164    
C        C      0.035400000000     0.337400000000     0.695800000000     0.10164    
C        C      0.003200000000     0.290900000000     0.618500000000     0.10164    
C        C      0.163100000000     0.357600000000     0.534300000000     0.10164    
C        C      0.922900000000     0.475700000000     0.687500000000     0.10164    
C        C      0.338400000000     0.894000000000     0.467400000000     0.10164    
C        C      0.501100000000     0.907000000000     0.384600000000     0.10164    
C        C      0.467300000000     0.027400000000     0.306100000000     0.10164    
C        C      0.581200000000     0.991600000000     0.225000000000     0.10164    
C        C      0.472500000000     0.042200000000     0.145500000000     0.10164    
C        C      0.579300000000     0.159600000000     0.310800000000     0.10164    
C        C      0.979200000000     0.797200000000     0.141500000000     0.10164    
C        C      0.080900000000     0.774000000000     0.221400000000     0.10164    
C        C      0.964600000000     0.662600000000     0.304200000000     0.10164    
C        C      0.996800000000     0.709100000000     0.381500000000     0.10164    
C        C      0.836900000000     0.642400000000     0.465700000000     0.10164    
C        C      0.077100000000     0.524300000000     0.312500000000     0.10164    
C        C      0.661600000000     0.106000000000     0.532600000000     0.10164    
C        C      0.498900000000     0.093000000000     0.615400000000     0.10164    
C        C      0.532700000000     0.972600000000     0.693900000000     0.10164    
C        C      0.418800000000     0.008400000000     0.775000000000     0.10164    
C        C      0.527500000000     0.957800000000     0.854500000000     0.10164    
C        C      0.420700000000     0.840400000000     0.689200000000     0.10164    
O        O      0.175800000000     0.283500000000     0.861300000000    -0.5147     
O        O      0.949800000000     0.097600000000     0.920100000000    -0.5147     
O        O      0.188000000000     0.293600000000     0.480400000000    -0.5147     
O        O      0.266900000000     0.471300000000     0.520500000000    -0.5147     
O        O      0.049000000000     0.581600000000     0.673700000000    -0.5147     
O        O      0.710700000000     0.471300000000     0.693600000000    -0.5147     
O        O      0.274900000000     0.353200000000     0.694100000000    -0.5147     
O        O      0.234700000000     0.992600000000     0.481300000000    -0.5147     
O        O      0.310600000000     0.776100000000     0.521800000000    -0.5147     
O        O      0.548100000000     0.001600000000     0.083000000000    -0.5147     
O        O      0.310600000000     0.120200000000     0.144900000000    -0.5147     
O        O      0.454100000000     0.254200000000     0.322200000000    -0.5147     
O        O      0.792100000000     0.164400000000     0.303400000000    -0.5147     
O        O      0.227100000000     0.041000000000     0.308300000000    -0.5147     
O        O      0.824200000000     0.716500000000     0.138700000000    -0.5147     
O        O      0.050200000000     0.902400000000     0.079900000000    -0.5147     
O        O      0.812000000000     0.706400000000     0.519600000000    -0.5147     
O        O      0.733100000000     0.528700000000     0.479500000000    -0.5147     
O        O      0.951000000000     0.418400000000     0.326300000000    -0.5147     
O        O      0.289300000000     0.528700000000     0.306400000000    -0.5147     
O        O      0.725100000000     0.646800000000     0.305900000000    -0.5147     
O        O      0.765300000000     0.007400000000     0.518700000000    -0.5147     
O        O      0.689400000000     0.223900000000     0.478200000000    -0.5147     
O        O      0.451900000000     0.998400000000     0.917000000000    -0.5147     
O        O      0.689400000000     0.879800000000     0.855100000000    -0.5147     
O        O      0.545900000000     0.745800000000     0.677800000000    -0.5147     
O        O      0.207900000000     0.835600000000     0.696600000000    -0.5147     
O        O      0.772900000000     0.959000000000     0.691700000000    -0.5147     


