data_ISIMAZ_original

_audit_creation_method RASPA-1.0
_audit_creation_date 2022-1-28
_audit_author_name 'Felipe Lopes de Oliveira <felipe.lopes.oliveira@ibm.com>'

_cell_length_a    7.2169
_cell_length_b    16.9389
_cell_length_c    17.0897
_cell_angle_alpha 90
_cell_angle_beta  95.513
_cell_angle_gamma 90
_cell_volume      2079.49

_symmetry_cell_setting          triclinic
_symmetry_space_group_name_Hall 'P 1'
_symmetry_space_group_name_H-M  'P 1'
_symmetry_Int_Tables_number     1

_symmetry_equiv_pos_as_xyz 'x,y,z'

loop_
_atom_site_label
_atom_site_type_symbol
_atom_site_fract_x
_atom_site_fract_y
_atom_site_fract_z
_atom_site_charge
Zn       Zn     0.931820000000     0.799190000000     0.308640000000     0.422599   
Zn       Zn     0.568180000000     0.299190000000     0.191360000000     0.422599   
Zn       Zn     0.068180000000     0.200810000000     0.691360000000     0.422599   
Zn       Zn     0.431820000000     0.700810000000     0.808640000000     0.422599   
H        H      0.593700000000     0.927800000000     0.425700000000     0.0585234  
H        H      0.932600000000     0.938900000000     0.447500000000     0.0585234  
H        H      0.822500000000     0.017600000000     0.460100000000     0.0585234  
H        H      0.246800000000     0.666700000000     0.436000000000     0.0585234  
H        H      0.252800000000     0.657200000000     0.345100000000     0.0585234  
H        H      0.227100000000     0.799300000000     0.534100000000     0.0585234  
H        H      0.703500000000     0.868500000000     0.653000000000     0.0585234  
H        H      0.470400000000     0.486200000000     0.198100000000     0.0585234  
H        H      0.392600000000     0.531100000000     0.370800000000     0.0585234  
H        H      0.348700000000     0.541000000000     0.458400000000     0.0585234  
H        H      0.888000000000     0.724700000000     0.479300000000     0.0585234  
H        H      0.614900000000     0.652500000000     0.516400000000     0.0585234  
H        H      0.525600000000     0.721100000000     0.295300000000     0.0585234  
H        H      0.020400000000     0.551400000000     0.410300000000     0.0585234  
H        H      0.104700000000     0.467100000000     0.399400000000     0.0585234  
H        H      0.153500000000     0.501100000000     0.269200000000     0.0585234  
H        H      0.056200000000     0.582400000000     0.280800000000     0.0585234  
H        H      0.925300000000     0.375100000000     0.272800000000     0.0585234  
H        H      0.699200000000     0.586200000000     0.243500000000     0.0585234  
H        H      0.906300000000     0.427800000000     0.074300000000     0.0585234  
H        H      0.567400000000     0.438900000000     0.052500000000     0.0585234  
H        H      0.677500000000     0.517600000000     0.039900000000     0.0585234  
H        H      0.253200000000     0.166700000000     0.064000000000     0.0585234  
H        H      0.247200000000     0.157200000000     0.154900000000     0.0585234  
H        H      0.272900000000     0.299300000000     0.965900000000     0.0585234  
H        H      0.796500000000     0.368500000000     0.847000000000     0.0585234  
H        H      0.029600000000     0.986200000000     0.301900000000     0.0585234  
H        H      0.107400000000     0.031100000000     0.129200000000     0.0585234  
H        H      0.151300000000     0.041000000000     0.041600000000     0.0585234  
H        H      0.612000000000     0.224700000000     0.020700000000     0.0585234  
H        H      0.885100000000     0.152500000000     0.983600000000     0.0585234  
H        H      0.974400000000     0.221100000000     0.204700000000     0.0585234  
H        H      0.479600000000     0.051400000000     0.089700000000     0.0585234  
H        H      0.395300000000     0.967100000000     0.100600000000     0.0585234  
H        H      0.346500000000     0.001100000000     0.230800000000     0.0585234  
H        H      0.443800000000     0.082400000000     0.219200000000     0.0585234  
H        H      0.574700000000     0.875100000000     0.227200000000     0.0585234  
H        H      0.800800000000     0.086200000000     0.256500000000     0.0585234  
H        H      0.406300000000     0.072200000000     0.574300000000     0.0585234  
H        H      0.067400000000     0.061100000000     0.552500000000     0.0585234  
H        H      0.177500000000     0.982400000000     0.539900000000     0.0585234  
H        H      0.753200000000     0.333300000000     0.564000000000     0.0585234  
H        H      0.747200000000     0.342800000000     0.654900000000     0.0585234  
H        H      0.772900000000     0.200700000000     0.465900000000     0.0585234  
H        H      0.296500000000     0.131500000000     0.347000000000     0.0585234  
H        H      0.529600000000     0.513800000000     0.801900000000     0.0585234  
H        H      0.607400000000     0.468900000000     0.629200000000     0.0585234  
H        H      0.651300000000     0.459000000000     0.541600000000     0.0585234  
H        H      0.112000000000     0.275300000000     0.520700000000     0.0585234  
H        H      0.385100000000     0.347500000000     0.483600000000     0.0585234  
H        H      0.474400000000     0.278900000000     0.704700000000     0.0585234  
H        H      0.979600000000     0.448600000000     0.589700000000     0.0585234  
H        H      0.895300000000     0.532900000000     0.600600000000     0.0585234  
H        H      0.846500000000     0.498900000000     0.730800000000     0.0585234  
H        H      0.943800000000     0.417600000000     0.719200000000     0.0585234  
H        H      0.074700000000     0.624900000000     0.727200000000     0.0585234  
H        H      0.300800000000     0.413800000000     0.756500000000     0.0585234  
H        H      0.093700000000     0.572200000000     0.925700000000     0.0585234  
H        H      0.432600000000     0.561100000000     0.947500000000     0.0585234  
H        H      0.322500000000     0.482400000000     0.960100000000     0.0585234  
H        H      0.746800000000     0.833300000000     0.936000000000     0.0585234  
H        H      0.752800000000     0.842800000000     0.845100000000     0.0585234  
H        H      0.727100000000     0.700700000000     0.034100000000     0.0585234  
H        H      0.203500000000     0.631500000000     0.153000000000     0.0585234  
H        H      0.970400000000     0.013800000000     0.698100000000     0.0585234  
H        H      0.892600000000     0.968900000000     0.870800000000     0.0585234  
H        H      0.848700000000     0.959000000000     0.958400000000     0.0585234  
H        H      0.388000000000     0.775300000000     0.979300000000     0.0585234  
H        H      0.114900000000     0.847500000000     0.016400000000     0.0585234  
H        H      0.025600000000     0.778900000000     0.795300000000     0.0585234  
H        H      0.520400000000     0.948600000000     0.910300000000     0.0585234  
H        H      0.604700000000     0.032900000000     0.899400000000     0.0585234  
H        H      0.653500000000     0.998900000000     0.769200000000     0.0585234  
H        H      0.556200000000     0.917600000000     0.780800000000     0.0585234  
H        H      0.425300000000     0.124900000000     0.772800000000     0.0585234  
H        H      0.199200000000     0.913800000000     0.743500000000     0.0585234  
C        C      0.559500000000     0.902700000000     0.470600000000     0.0168357  
C        C      0.674300000000     0.905700000000     0.541100000000     0.0168357  
C        C      0.909900000000     0.979700000000     0.485200000000     0.0168357  
C        C      0.315100000000     0.642700000000     0.395900000000     0.0168357  
C        C      0.341200000000     0.825020000000     0.535640000000     0.0168357  
C        C      0.624200000000     0.867200000000     0.606810000000     0.0168357  
C        C      0.393300000000     0.861350000000     0.468880000000     0.0168357  
C        C      0.268400000000     0.856500000000     0.392300000000     0.0168357  
C        C      0.591500000000     0.476200000000     0.219500000000     0.0168357  
C        C      0.457700000000     0.826600000000     0.605000000000     0.0168357  
C        C      0.307600000000     0.555100000000     0.404500000000     0.0168357  
C        C      0.406200000000     0.783100000000     0.676200000000     0.0168357  
C        C      0.780600000000     0.714600000000     0.446300000000     0.0168357  
C        C      0.629700000000     0.675000000000     0.467800000000     0.0168357  
C        C      0.583300000000     0.713100000000     0.345700000000     0.0168357  
C        C      0.109300000000     0.521800000000     0.382900000000     0.0168357  
C        C      0.058300000000     0.527300000000     0.296200000000     0.0168357  
C        C      0.839400000000     0.415100000000     0.260300000000     0.0168357  
C        C      0.716600000000     0.531800000000     0.244200000000     0.0168357  
C        C      0.940500000000     0.402700000000     0.029400000000     0.0168357  
C        C      0.825700000000     0.405700000000     0.958900000000     0.0168357  
C        C      0.590100000000     0.479700000000     0.014800000000     0.0168357  
C        C      0.184900000000     0.142700000000     0.104100000000     0.0168357  
C        C      0.158800000000     0.325020000000     0.964360000000     0.0168357  
C        C      0.875800000000     0.367200000000     0.893190000000     0.0168357  
C        C      0.106700000000     0.361350000000     0.031120000000     0.0168357  
C        C      0.231600000000     0.356500000000     0.107700000000     0.0168357  
C        C      0.908500000000     0.976200000000     0.280500000000     0.0168357  
C        C      0.042300000000     0.326600000000     0.895000000000     0.0168357  
C        C      0.192400000000     0.055100000000     0.095500000000     0.0168357  
C        C      0.093800000000     0.283100000000     0.823800000000     0.0168357  
C        C      0.719400000000     0.214600000000     0.053700000000     0.0168357  
C        C      0.870300000000     0.175000000000     0.032200000000     0.0168357  
C        C      0.916700000000     0.213100000000     0.154300000000     0.0168357  
C        C      0.390700000000     0.021800000000     0.117100000000     0.0168357  
C        C      0.441700000000     0.027300000000     0.203800000000     0.0168357  
C        C      0.660600000000     0.915100000000     0.239700000000     0.0168357  
C        C      0.783400000000     0.031800000000     0.255800000000     0.0168357  
C        C      0.440500000000     0.097300000000     0.529400000000     0.0168357  
C        C      0.325700000000     0.094300000000     0.458900000000     0.0168357  
C        C      0.090100000000     0.020300000000     0.514800000000     0.0168357  
C        C      0.684900000000     0.357300000000     0.604100000000     0.0168357  
C        C      0.658800000000     0.174980000000     0.464360000000     0.0168357  
C        C      0.375800000000     0.132800000000     0.393190000000     0.0168357  
C        C      0.606700000000     0.138650000000     0.531120000000     0.0168357  
C        C      0.731600000000     0.143500000000     0.607700000000     0.0168357  
C        C      0.408500000000     0.523800000000     0.780500000000     0.0168357  
C        C      0.542300000000     0.173400000000     0.395000000000     0.0168357  
C        C      0.692400000000     0.444900000000     0.595500000000     0.0168357  
C        C      0.593800000000     0.216900000000     0.323800000000     0.0168357  
C        C      0.219400000000     0.285400000000     0.553700000000     0.0168357  
C        C      0.370300000000     0.325000000000     0.532200000000     0.0168357  
C        C      0.416700000000     0.286900000000     0.654300000000     0.0168357  
C        C      0.890700000000     0.478200000000     0.617100000000     0.0168357  
C        C      0.941700000000     0.472700000000     0.703800000000     0.0168357  
C        C      0.160600000000     0.584900000000     0.739700000000     0.0168357  
C        C      0.283400000000     0.468200000000     0.755800000000     0.0168357  
C        C      0.059500000000     0.597300000000     0.970600000000     0.0168357  
C        C      0.174300000000     0.594300000000     0.041100000000     0.0168357  
C        C      0.409900000000     0.520300000000     0.985200000000     0.0168357  
C        C      0.815100000000     0.857300000000     0.895900000000     0.0168357  
C        C      0.841200000000     0.674980000000     0.035640000000     0.0168357  
C        C      0.124200000000     0.632800000000     0.106810000000     0.0168357  
C        C      0.893300000000     0.638650000000     0.968880000000     0.0168357  
C        C      0.768400000000     0.643500000000     0.892300000000     0.0168357  
C        C      0.091500000000     0.023800000000     0.719500000000     0.0168357  
C        C      0.957700000000     0.673400000000     0.105000000000     0.0168357  
C        C      0.807600000000     0.944900000000     0.904500000000     0.0168357  
C        C      0.906200000000     0.716900000000     0.176200000000     0.0168357  
C        C      0.280600000000     0.785400000000     0.946300000000     0.0168357  
C        C      0.129700000000     0.825000000000     0.967800000000     0.0168357  
C        C      0.083300000000     0.786900000000     0.845700000000     0.0168357  
C        C      0.609300000000     0.978200000000     0.882900000000     0.0168357  
C        C      0.558300000000     0.972700000000     0.796200000000     0.0168357  
C        C      0.339400000000     0.084900000000     0.760300000000     0.0168357  
C        C      0.216600000000     0.968200000000     0.744200000000     0.0168357  
N        N      0.504000000000     0.675260000000     0.402460000000    -0.13838    
N        N      0.752200000000     0.737490000000     0.369260000000    -0.13838    
N        N      0.668100000000     0.403070000000     0.230260000000    -0.13838    
N        N      0.875800000000     0.491480000000     0.270720000000    -0.13838    
N        N      0.996000000000     0.175260000000     0.097540000000    -0.13838    
N        N      0.747800000000     0.237490000000     0.130740000000    -0.13838    
N        N      0.831900000000     0.903070000000     0.269740000000    -0.13838    
N        N      0.624200000000     0.991480000000     0.229280000000    -0.13838    
N        N      0.496000000000     0.324740000000     0.597540000000    -0.13838    
N        N      0.247800000000     0.262510000000     0.630740000000    -0.13838    
N        N      0.331900000000     0.596930000000     0.769740000000    -0.13838    
N        N      0.124200000000     0.508520000000     0.729280000000    -0.13838    
N        N      0.004000000000     0.824740000000     0.902460000000    -0.13838    
N        N      0.252200000000     0.762510000000     0.869260000000    -0.13838    
N        N      0.168100000000     0.096930000000     0.730260000000    -0.13838    
N        N      0.375800000000     0.008520000000     0.770720000000    -0.13838    
O        O      0.118900000000     0.815430000000     0.396710000000    -0.260181   
O        O      0.839000000000     0.946670000000     0.551310000000    -0.260181   
O        O      0.243900000000     0.760700000000     0.680080000000    -0.260181   
O        O      0.310200000000     0.889070000000     0.332560000000    -0.260181   
O        O      0.537000000000     0.770090000000     0.731530000000    -0.260181   
O        O      0.381100000000     0.315430000000     0.103290000000    -0.260181   
O        O      0.661000000000     0.446670000000     0.948690000000    -0.260181   
O        O      0.256100000000     0.260700000000     0.819920000000    -0.260181   
O        O      0.189800000000     0.389070000000     0.167440000000    -0.260181   
O        O      0.963000000000     0.270090000000     0.768470000000    -0.260181   
O        O      0.881100000000     0.184570000000     0.603290000000    -0.260181   
O        O      0.161000000000     0.053330000000     0.448690000000    -0.260181   
O        O      0.756100000000     0.239300000000     0.319920000000    -0.260181   
O        O      0.689800000000     0.110930000000     0.667440000000    -0.260181   
O        O      0.463000000000     0.229910000000     0.268470000000    -0.260181   
O        O      0.618900000000     0.684570000000     0.896710000000    -0.260181   
O        O      0.339000000000     0.553330000000     0.051310000000    -0.260181   
O        O      0.743900000000     0.739300000000     0.180080000000    -0.260181   
O        O      0.810200000000     0.610930000000     0.832560000000    -0.260181   
O        O      0.037000000000     0.729910000000     0.231530000000    -0.260181   


