data_ISOHEE_original

_audit_creation_method RASPA-1.0
_audit_creation_date 2022-1-30
_audit_author_name 'Felipe Lopes de Oliveira <felipe.lopes.oliveira@ibm.com>'

_cell_length_a    10.07
_cell_length_b    11.383
_cell_length_c    13.936
_cell_angle_alpha 90
_cell_angle_beta  101.955
_cell_angle_gamma 90
_cell_volume      1562.79

_symmetry_cell_setting          triclinic
_symmetry_space_group_name_Hall 'P 1'
_symmetry_space_group_name_H-M  'P 1'
_symmetry_Int_Tables_number     1

_symmetry_equiv_pos_as_xyz 'x,y,z'

loop_
_atom_site_label
_atom_site_type_symbol
_atom_site_fract_x
_atom_site_fract_y
_atom_site_fract_z
_atom_site_charge
Zn       Zn     0.374300000000     0.000000000000     0.599540000000     0.455259   
Zn       Zn     0.625700000000     0.000000000000     0.400460000000     0.455259   
H        H      0.521100000000     0.788900000000     0.710000000000     0.0598445  
H        H      0.531100000000     0.590700000000     0.710600000000     0.0598445  
H        H      0.218500000000     0.592900000000     0.485600000000     0.0598445  
H        H      0.227600000000     0.788600000000     0.486300000000     0.0598445  
H        H      0.478900000000     0.788900000000     0.290000000000     0.0598445  
H        H      0.468900000000     0.590700000000     0.289400000000     0.0598445  
H        H      0.781500000000     0.592900000000     0.514400000000     0.0598445  
H        H      0.772400000000     0.788600000000     0.513700000000     0.0598445  
H        H      0.478900000000     0.211100000000     0.290000000000     0.0598445  
H        H      0.468900000000     0.409300000000     0.289400000000     0.0598445  
H        H      0.781500000000     0.407100000000     0.514400000000     0.0598445  
H        H      0.772400000000     0.211400000000     0.513700000000     0.0598445  
H        H      0.521100000000     0.211100000000     0.710000000000     0.0598445  
H        H      0.531100000000     0.409300000000     0.710600000000     0.0598445  
H        H      0.218500000000     0.407100000000     0.485600000000     0.0598445  
H        H      0.227600000000     0.211400000000     0.486300000000     0.0598445  
H        H      0.916100000000     0.000000000000     0.600700000000     0.0598445  
H        H      0.147100000000     0.000000000000     0.872600000000     0.0598445  
H        H      0.741100000000     0.000000000000     0.835000000000     0.0598445  
H        H      0.083900000000     0.000000000000     0.399300000000     0.0598445  
H        H      0.852900000000     0.000000000000     0.127400000000     0.0598445  
H        H      0.258900000000     0.000000000000     0.165000000000     0.0598445  
C        C      0.461000000000     0.748400000000     0.661700000000     0.0228002  
C        C      0.466400000000     0.628800000000     0.663600000000     0.0228002  
C        C      0.375800000000     0.563700000000     0.595700000000     0.0228002  
C        C      0.285200000000     0.630200000000     0.531600000000     0.0228002  
C        C      0.290000000000     0.748200000000     0.533200000000     0.0228002  
C        C      0.539000000000     0.748400000000     0.338300000000     0.0228002  
C        C      0.533600000000     0.628800000000     0.336400000000     0.0228002  
C        C      0.624200000000     0.563700000000     0.404300000000     0.0228002  
C        C      0.714800000000     0.630200000000     0.468400000000     0.0228002  
C        C      0.710000000000     0.748200000000     0.466800000000     0.0228002  
C        C      0.539000000000     0.251600000000     0.338300000000     0.0228002  
C        C      0.533600000000     0.371200000000     0.336400000000     0.0228002  
C        C      0.624200000000     0.436300000000     0.404300000000     0.0228002  
C        C      0.714800000000     0.369800000000     0.468400000000     0.0228002  
C        C      0.710000000000     0.251800000000     0.466800000000     0.0228002  
C        C      0.461000000000     0.251600000000     0.661700000000     0.0228002  
C        C      0.466400000000     0.371200000000     0.663600000000     0.0228002  
C        C      0.375800000000     0.436300000000     0.595700000000     0.0228002  
C        C      0.285200000000     0.369800000000     0.531600000000     0.0228002  
C        C      0.290000000000     0.251800000000     0.533200000000     0.0228002  
C        C      0.668400000000     0.000000000000     0.638800000000     0.0228002  
C        C      0.806400000000     0.000000000000     0.705700000000     0.0228002  
C        C      0.923100000000     0.000000000000     0.668300000000     0.0228002  
C        C      0.052100000000     0.000000000000     0.730600000000     0.0228002  
C        C      0.178300000000     0.000000000000     0.689000000000     0.0228002  
C        C      0.062200000000     0.000000000000     0.830800000000     0.0228002  
C        C      0.944700000000     0.000000000000     0.869700000000     0.0228002  
C        C      0.818700000000     0.000000000000     0.808500000000     0.0228002  
C        C      0.331600000000     0.000000000000     0.361200000000     0.0228002  
C        C      0.193600000000     0.000000000000     0.294300000000     0.0228002  
C        C      0.076900000000     0.000000000000     0.331700000000     0.0228002  
C        C      0.947900000000     0.000000000000     0.269400000000     0.0228002  
C        C      0.821700000000     0.000000000000     0.311000000000     0.0228002  
C        C      0.937800000000     0.000000000000     0.169200000000     0.0228002  
C        C      0.055300000000     0.000000000000     0.130300000000     0.0228002  
C        C      0.181300000000     0.000000000000     0.191500000000     0.0228002  
N        N      0.376900000000     0.810300000000     0.596500000000    -0.13574    
N        N      0.623100000000     0.810300000000     0.403500000000    -0.13574    
N        N      0.623100000000     0.189700000000     0.403500000000    -0.13574    
N        N      0.376900000000     0.189700000000     0.596500000000    -0.13574    
N        N      0.944100000000     0.000000000000     0.972400000000    -0.13574    
N        N      0.055900000000     0.000000000000     0.027600000000    -0.13574    
O        O      0.567800000000     0.000000000000     0.680100000000    -0.279183   
O        O      0.662600000000     0.000000000000     0.550900000000    -0.279183   
O        O      0.164400000000     0.000000000000     0.598200000000    -0.279183   
O        O      0.291200000000     0.000000000000     0.745700000000    -0.279183   
O        O      0.432200000000     0.000000000000     0.319900000000    -0.279183   
O        O      0.337400000000     0.000000000000     0.449100000000    -0.279183   
O        O      0.835600000000     0.000000000000     0.401800000000    -0.279183   
O        O      0.708800000000     0.000000000000     0.254300000000    -0.279183   


