data_ISOJOQ_original

_audit_creation_method RASPA-1.0
_audit_creation_date 2022-1-28
_audit_author_name 'Felipe Lopes de Oliveira <felipe.lopes.oliveira@ibm.com>'

_cell_length_a    13.8954
_cell_length_b    13.8954
_cell_length_c    17.787
_cell_angle_alpha 90
_cell_angle_beta  90
_cell_angle_gamma 90
_cell_volume      3434.35

_symmetry_cell_setting          triclinic
_symmetry_space_group_name_Hall 'P 1'
_symmetry_space_group_name_H-M  'P 1'
_symmetry_Int_Tables_number     1

_symmetry_equiv_pos_as_xyz 'x,y,z'

loop_
_atom_site_label
_atom_site_type_symbol
_atom_site_fract_x
_atom_site_fract_y
_atom_site_fract_z
_atom_site_charge
In       In     0.087330000000     0.087330000000     0.500000000000     2.32675    
In       In     0.412670000000     0.587330000000     0.250000000000     2.32675    
In       In     0.912670000000     0.912670000000     0.000000000000     2.32675    
In       In     0.587330000000     0.412670000000     0.750000000000     2.32675    
H        H      0.400000000000     0.177800000000     0.427900000000     0.198398   
H        H      0.322200000000     0.900000000000     0.177900000000     0.198398   
H        H      0.600000000000     0.822200000000     0.927900000000     0.198398   
H        H      0.677800000000     0.100000000000     0.677900000000     0.198398   
H        H      0.900000000000     0.322200000000     0.822100000000     0.198398   
H        H      0.177800000000     0.400000000000     0.572100000000     0.198398   
H        H      0.100000000000     0.677800000000     0.322100000000     0.198398   
H        H      0.822200000000     0.600000000000     0.072100000000     0.198398   
H        H      0.431600000000     0.103800000000     0.365500000000     0.198398   
H        H      0.396200000000     0.931600000000     0.115500000000     0.198398   
H        H      0.568400000000     0.896200000000     0.865500000000     0.198398   
H        H      0.603800000000     0.068400000000     0.615500000000     0.198398   
H        H      0.931600000000     0.396200000000     0.884500000000     0.198398   
H        H      0.103800000000     0.431600000000     0.634500000000     0.198398   
H        H      0.068400000000     0.603800000000     0.384500000000     0.198398   
H        H      0.896200000000     0.568400000000     0.134500000000     0.198398   
H        H      0.506100000000     0.214400000000     0.307900000000     0.198398   
H        H      0.285600000000     0.006100000000     0.057900000000     0.198398   
H        H      0.493900000000     0.785600000000     0.807900000000     0.198398   
H        H      0.714400000000     0.993900000000     0.557900000000     0.198398   
H        H      0.006100000000     0.285600000000     0.942100000000     0.198398   
H        H      0.214400000000     0.506100000000     0.692100000000     0.198398   
H        H      0.993900000000     0.714400000000     0.442100000000     0.198398   
H        H      0.785600000000     0.493900000000     0.192100000000     0.198398   
H        H      0.476500000000     0.287700000000     0.371200000000     0.198398   
H        H      0.212300000000     0.976500000000     0.121200000000     0.198398   
H        H      0.523500000000     0.712300000000     0.871200000000     0.198398   
H        H      0.787700000000     0.023500000000     0.621200000000     0.198398   
H        H      0.976500000000     0.212300000000     0.878800000000     0.198398   
H        H      0.287700000000     0.476500000000     0.628800000000     0.198398   
H        H      0.023500000000     0.787700000000     0.378800000000     0.198398   
H        H      0.712300000000     0.523500000000     0.128800000000     0.198398   
H        H      0.383500000000     0.259100000000     0.230500000000     0.198398   
H        H      0.240900000000     0.883500000000     0.980500000000     0.198398   
H        H      0.616500000000     0.740900000000     0.730500000000     0.198398   
H        H      0.759100000000     0.116500000000     0.480500000000     0.198398   
H        H      0.883500000000     0.240900000000     0.019500000000     0.198398   
H        H      0.259100000000     0.383500000000     0.769500000000     0.198398   
H        H      0.116500000000     0.759100000000     0.519500000000     0.198398   
H        H      0.740900000000     0.616500000000     0.269500000000     0.198398   
H        H      0.288700000000     0.033400000000     0.296000000000     0.198398   
H        H      0.466600000000     0.788700000000     0.046000000000     0.198398   
H        H      0.711300000000     0.966600000000     0.796000000000     0.198398   
H        H      0.533400000000     0.211300000000     0.546000000000     0.198398   
H        H      0.788700000000     0.466600000000     0.954000000000     0.198398   
H        H      0.033400000000     0.288700000000     0.704000000000     0.198398   
H        H      0.211300000000     0.533400000000     0.454000000000     0.198398   
H        H      0.966600000000     0.711300000000     0.204000000000     0.198398   
H        H      0.331700000000     0.111400000000     0.241900000000     0.198398   
H        H      0.388600000000     0.831700000000     0.991900000000     0.198398   
H        H      0.668300000000     0.888600000000     0.741900000000     0.198398   
H        H      0.611400000000     0.168300000000     0.491900000000     0.198398   
H        H      0.831700000000     0.388600000000     0.008100000000     0.198398   
H        H      0.111400000000     0.331700000000     0.758100000000     0.198398   
H        H      0.168300000000     0.611400000000     0.508100000000     0.198398   
H        H      0.888600000000     0.668300000000     0.258100000000     0.198398   
H        H      0.220300000000     0.106700000000     0.255600000000     0.198398   
H        H      0.393300000000     0.720300000000     0.005600000000     0.198398   
H        H      0.779700000000     0.893300000000     0.755600000000     0.198398   
H        H      0.606700000000     0.279700000000     0.505600000000     0.198398   
H        H      0.720300000000     0.393300000000     0.994400000000     0.198398   
H        H      0.106700000000     0.220300000000     0.744400000000     0.198398   
H        H      0.279700000000     0.606700000000     0.494400000000     0.198398   
H        H      0.893300000000     0.779700000000     0.244400000000     0.198398   
H        H      0.202000000000     0.250400000000     0.227300000000     0.198398   
H        H      0.249600000000     0.702000000000     0.977300000000     0.198398   
H        H      0.798000000000     0.749600000000     0.727300000000     0.198398   
H        H      0.750400000000     0.298000000000     0.477300000000     0.198398   
H        H      0.702000000000     0.249600000000     0.022700000000     0.198398   
H        H      0.250400000000     0.202000000000     0.772700000000     0.198398   
H        H      0.298000000000     0.750400000000     0.522700000000     0.198398   
H        H      0.749600000000     0.798000000000     0.272700000000     0.198398   
H        H      0.202200000000     0.356700000000     0.256900000000     0.198398   
H        H      0.143300000000     0.702200000000     0.006900000000     0.198398   
H        H      0.797800000000     0.643300000000     0.756900000000     0.198398   
H        H      0.856700000000     0.297800000000     0.506900000000     0.198398   
H        H      0.702200000000     0.143300000000     0.993100000000     0.198398   
H        H      0.356700000000     0.202200000000     0.743100000000     0.198398   
H        H      0.297800000000     0.856700000000     0.493100000000     0.198398   
H        H      0.643300000000     0.797800000000     0.243100000000     0.198398   
H        H      0.141100000000     0.277900000000     0.298300000000     0.198398   
H        H      0.222100000000     0.641100000000     0.048300000000     0.198398   
H        H      0.858900000000     0.722100000000     0.798300000000     0.198398   
H        H      0.777900000000     0.358900000000     0.548300000000     0.198398   
H        H      0.641100000000     0.222100000000     0.951700000000     0.198398   
H        H      0.277900000000     0.141100000000     0.701700000000     0.198398   
H        H      0.358900000000     0.777900000000     0.451700000000     0.198398   
H        H      0.722100000000     0.858900000000     0.201700000000     0.198398   
H        H      0.264500000000     0.402200000000     0.359800000000     0.198398   
H        H      0.097800000000     0.764500000000     0.109800000000     0.198398   
H        H      0.735500000000     0.597800000000     0.859800000000     0.198398   
H        H      0.902200000000     0.235500000000     0.609800000000     0.198398   
H        H      0.764500000000     0.097800000000     0.890200000000     0.198398   
H        H      0.402200000000     0.264500000000     0.640200000000     0.198398   
H        H      0.235500000000     0.902200000000     0.390200000000     0.198398   
H        H      0.597800000000     0.735500000000     0.140200000000     0.198398   
H        H      0.314300000000     0.333400000000     0.417800000000     0.198398   
H        H      0.166600000000     0.814300000000     0.167800000000     0.198398   
H        H      0.685700000000     0.666600000000     0.917800000000     0.198398   
H        H      0.833400000000     0.185700000000     0.667800000000     0.198398   
H        H      0.814300000000     0.166600000000     0.832200000000     0.198398   
H        H      0.333400000000     0.314300000000     0.582200000000     0.198398   
H        H      0.185700000000     0.833400000000     0.332200000000     0.198398   
H        H      0.666600000000     0.685700000000     0.082200000000     0.198398   
H        H      0.203300000000     0.325600000000     0.403300000000     0.198398   
H        H      0.174400000000     0.703300000000     0.153300000000     0.198398   
H        H      0.796700000000     0.674400000000     0.903300000000     0.198398   
H        H      0.825600000000     0.296700000000     0.653300000000     0.198398   
H        H      0.703300000000     0.174400000000     0.846700000000     0.198398   
H        H      0.325600000000     0.203300000000     0.596700000000     0.198398   
H        H      0.296700000000     0.825600000000     0.346700000000     0.198398   
H        H      0.674400000000     0.796700000000     0.096700000000     0.198398   
C        C      0.282500000000     0.267800000000     0.320100000000    -0.180087   
C        C      0.232200000000     0.782500000000     0.070100000000    -0.180087   
C        C      0.717500000000     0.732200000000     0.820100000000    -0.180087   
C        C      0.767800000000     0.217500000000     0.570100000000    -0.180087   
C        C      0.782500000000     0.232200000000     0.929900000000    -0.180087   
C        C      0.267800000000     0.282500000000     0.679900000000    -0.180087   
C        C      0.217500000000     0.767800000000     0.429900000000    -0.180087   
C        C      0.732200000000     0.717500000000     0.179900000000    -0.180087   
C        C      0.292300000000     0.164500000000     0.341400000000    -0.180087   
C        C      0.335500000000     0.792300000000     0.091400000000    -0.180087   
C        C      0.707700000000     0.835500000000     0.841400000000    -0.180087   
C        C      0.664500000000     0.207700000000     0.591400000000    -0.180087   
C        C      0.792300000000     0.335500000000     0.908600000000    -0.180087   
C        C      0.164500000000     0.292300000000     0.658600000000    -0.180087   
C        C      0.207700000000     0.664500000000     0.408600000000    -0.180087   
C        C      0.835500000000     0.707700000000     0.158600000000    -0.180087   
C        C      0.400700000000     0.165400000000     0.374200000000    -0.180087   
C        C      0.334600000000     0.900700000000     0.124200000000    -0.180087   
C        C      0.599300000000     0.834600000000     0.874200000000    -0.180087   
C        C      0.665400000000     0.099300000000     0.624200000000    -0.180087   
C        C      0.900700000000     0.334600000000     0.875800000000    -0.180087   
C        C      0.165400000000     0.400700000000     0.625800000000    -0.180087   
C        C      0.099300000000     0.665400000000     0.375800000000    -0.180087   
C        C      0.834600000000     0.599300000000     0.125800000000    -0.180087   
C        C      0.452100000000     0.241200000000     0.335300000000    -0.180087   
C        C      0.258800000000     0.952100000000     0.085300000000    -0.180087   
C        C      0.547900000000     0.758800000000     0.835300000000    -0.180087   
C        C      0.741200000000     0.047900000000     0.585300000000    -0.180087   
C        C      0.952100000000     0.258800000000     0.914700000000    -0.180087   
C        C      0.241200000000     0.452100000000     0.664700000000    -0.180087   
C        C      0.047900000000     0.741200000000     0.414700000000    -0.180087   
C        C      0.758800000000     0.547900000000     0.164700000000    -0.180087   
C        C      0.381200000000     0.291600000000     0.279400000000    -0.180087   
C        C      0.208400000000     0.881200000000     0.029400000000    -0.180087   
C        C      0.618800000000     0.708400000000     0.779400000000    -0.180087   
C        C      0.791600000000     0.118800000000     0.529400000000    -0.180087   
C        C      0.881200000000     0.208400000000     0.970600000000    -0.180087   
C        C      0.291600000000     0.381200000000     0.720600000000    -0.180087   
C        C      0.118800000000     0.791600000000     0.470600000000    -0.180087   
C        C      0.708400000000     0.618800000000     0.220600000000    -0.180087   
C        C      0.216500000000     0.134100000000     0.400600000000    -0.180087   
C        C      0.365900000000     0.716500000000     0.150600000000    -0.180087   
C        C      0.783500000000     0.865900000000     0.900600000000    -0.180087   
C        C      0.634100000000     0.283500000000     0.650600000000    -0.180087   
C        C      0.716500000000     0.365900000000     0.849400000000    -0.180087   
C        C      0.134100000000     0.216500000000     0.599400000000    -0.180087   
C        C      0.283500000000     0.634100000000     0.349400000000    -0.180087   
C        C      0.865900000000     0.783500000000     0.099400000000    -0.180087   
C        C      0.282400000000     0.098400000000     0.278400000000    -0.180087   
C        C      0.401600000000     0.782400000000     0.028400000000    -0.180087   
C        C      0.717600000000     0.901600000000     0.778400000000    -0.180087   
C        C      0.598400000000     0.217600000000     0.528400000000    -0.180087   
C        C      0.782400000000     0.401600000000     0.971600000000    -0.180087   
C        C      0.098400000000     0.282400000000     0.721600000000    -0.180087   
C        C      0.217600000000     0.598400000000     0.471600000000    -0.180087   
C        C      0.901600000000     0.717600000000     0.221600000000    -0.180087   
C        C      0.199700000000     0.290100000000     0.271400000000    -0.180087   
C        C      0.209900000000     0.699700000000     0.021400000000    -0.180087   
C        C      0.800300000000     0.709900000000     0.771400000000    -0.180087   
C        C      0.790100000000     0.300300000000     0.521400000000    -0.180087   
C        C      0.699700000000     0.209900000000     0.978600000000    -0.180087   
C        C      0.290100000000     0.199700000000     0.728600000000    -0.180087   
C        C      0.300300000000     0.790100000000     0.478600000000    -0.180087   
C        C      0.709900000000     0.800300000000     0.228600000000    -0.180087   
C        C      0.264600000000     0.338500000000     0.380500000000    -0.180087   
C        C      0.161500000000     0.764600000000     0.130500000000    -0.180087   
C        C      0.735400000000     0.661500000000     0.880500000000    -0.180087   
C        C      0.838500000000     0.235400000000     0.630500000000    -0.180087   
C        C      0.764600000000     0.161500000000     0.869500000000    -0.180087   
C        C      0.338500000000     0.264600000000     0.619500000000    -0.180087   
C        C      0.235400000000     0.838500000000     0.369500000000    -0.180087   
C        C      0.661500000000     0.735400000000     0.119500000000    -0.180087   
C        C      0.401100000000     0.399000000000     0.269200000000    -0.180087   
C        C      0.101000000000     0.901100000000     0.019200000000    -0.180087   
C        C      0.598900000000     0.601000000000     0.769200000000    -0.180087   
C        C      0.899000000000     0.098900000000     0.519200000000    -0.180087   
C        C      0.901100000000     0.101000000000     0.980800000000    -0.180087   
C        C      0.399000000000     0.401100000000     0.730800000000    -0.180087   
C        C      0.098900000000     0.899000000000     0.480800000000    -0.180087   
C        C      0.601000000000     0.598900000000     0.230800000000    -0.180087   
O        O      0.245100000000     0.105300000000     0.464600000000    -0.535019   
O        O      0.394700000000     0.745100000000     0.214600000000    -0.535019   
O        O      0.754900000000     0.894700000000     0.964600000000    -0.535019   
O        O      0.605300000000     0.254900000000     0.714600000000    -0.535019   
O        O      0.745100000000     0.394700000000     0.785400000000    -0.535019   
O        O      0.105300000000     0.245100000000     0.535400000000    -0.535019   
O        O      0.254900000000     0.605300000000     0.285400000000    -0.535019   
O        O      0.894700000000     0.754900000000     0.035400000000    -0.535019   
O        O      0.132200000000     0.135000000000     0.385200000000    -0.535019   
O        O      0.365000000000     0.632200000000     0.135200000000    -0.535019   
O        O      0.867800000000     0.865000000000     0.885200000000    -0.535019   
O        O      0.635000000000     0.367800000000     0.635200000000    -0.535019   
O        O      0.632200000000     0.365000000000     0.864800000000    -0.535019   
O        O      0.135000000000     0.132200000000     0.614800000000    -0.535019   
O        O      0.367800000000     0.635000000000     0.364800000000    -0.535019   
O        O      0.865000000000     0.867800000000     0.114800000000    -0.535019   
O        O      0.451000000000     0.443000000000     0.316900000000    -0.535019   
O        O      0.057000000000     0.951000000000     0.066900000000    -0.535019   
O        O      0.549000000000     0.557000000000     0.816900000000    -0.535019   
O        O      0.943000000000     0.049000000000     0.566900000000    -0.535019   
O        O      0.951000000000     0.057000000000     0.933100000000    -0.535019   
O        O      0.443000000000     0.451000000000     0.683100000000    -0.535019   
O        O      0.049000000000     0.943000000000     0.433100000000    -0.535019   
O        O      0.557000000000     0.549000000000     0.183100000000    -0.535019   
O        O      0.365500000000     0.441700000000     0.214500000000    -0.535019   
O        O      0.058300000000     0.865500000000     0.964500000000    -0.535019   
O        O      0.634500000000     0.558300000000     0.714500000000    -0.535019   
O        O      0.941700000000     0.134500000000     0.464500000000    -0.535019   
O        O      0.865500000000     0.058300000000     0.035500000000    -0.535019   
O        O      0.441700000000     0.365500000000     0.785500000000    -0.535019   
O        O      0.134500000000     0.941700000000     0.535500000000    -0.535019   
O        O      0.558300000000     0.634500000000     0.285500000000    -0.535019   


