data_IXURAV_original

_audit_creation_method RASPA-1.0
_audit_creation_date 2022-1-31
_audit_author_name 'Felipe Lopes de Oliveira <felipe.lopes.oliveira@ibm.com>'

_cell_length_a    10.274
_cell_length_b    14.724
_cell_length_c    29.5
_cell_angle_alpha 90
_cell_angle_beta  90
_cell_angle_gamma 90
_cell_volume      4462.59

_symmetry_cell_setting          triclinic
_symmetry_space_group_name_Hall 'P 1'
_symmetry_space_group_name_H-M  'P 1'
_symmetry_Int_Tables_number     1

_symmetry_equiv_pos_as_xyz 'x,y,z'

loop_
_atom_site_label
_atom_site_type_symbol
_atom_site_fract_x
_atom_site_fract_y
_atom_site_fract_z
_atom_site_charge
Zn       Zn     0.250000000000     0.750000000000     0.527970000000     0.416727   
Zn       Zn     0.750000000000     0.750000000000     0.027970000000     0.416727   
Zn       Zn     0.250000000000     0.250000000000     0.242450000000     0.416727   
Zn       Zn     0.750000000000     0.250000000000     0.742450000000     0.416727   
Zn       Zn     0.250000000000     0.250000000000     0.972030000000     0.416727   
Zn       Zn     0.750000000000     0.250000000000     0.472030000000     0.416727   
Zn       Zn     0.250000000000     0.750000000000     0.257550000000     0.416727   
Zn       Zn     0.750000000000     0.750000000000     0.757550000000     0.416727   
H        H      0.141800000000     0.906700000000     0.651500000000     0.0723995  
H        H      0.047100000000     0.000500000000     0.703900000000     0.0723995  
H        H      0.812000000000     0.100000000000     0.609200000000     0.0723995  
H        H      0.904300000000     0.005100000000     0.556300000000     0.0723995  
H        H      0.443500000000     0.714000000000     0.454900000000     0.0723995  
H        H      0.560600000000     0.787800000000     0.400700000000     0.0723995  
H        H      0.422000000000     0.024100000000     0.448900000000     0.0723995  
H        H      0.308400000000     0.944800000000     0.501700000000     0.0723995  
H        H      0.400600000000     0.985400000000     0.332500000000     0.0723995  
H        H      0.284700000000     0.066900000000     0.280600000000     0.0723995  
H        H      0.471600000000     0.286800000000     0.305200000000     0.0723995  
H        H      0.591100000000     0.217900000000     0.359800000000     0.0723995  
H        H      0.639200000000     0.927800000000     0.371700000000     0.0723995  
H        H      0.628800000000     0.085600000000     0.403800000000     0.0723995  
H        H      0.358200000000     0.593300000000     0.651500000000     0.0723995  
H        H      0.452900000000     0.499500000000     0.703900000000     0.0723995  
H        H      0.688000000000     0.400000000000     0.609200000000     0.0723995  
H        H      0.595700000000     0.494900000000     0.556300000000     0.0723995  
H        H      0.056500000000     0.786000000000     0.454900000000     0.0723995  
H        H      0.939400000000     0.712200000000     0.400700000000     0.0723995  
H        H      0.078000000000     0.475900000000     0.448900000000     0.0723995  
H        H      0.191600000000     0.555200000000     0.501700000000     0.0723995  
H        H      0.099400000000     0.514600000000     0.332500000000     0.0723995  
H        H      0.215300000000     0.433100000000     0.280600000000     0.0723995  
H        H      0.028400000000     0.213200000000     0.305200000000     0.0723995  
H        H      0.908900000000     0.282100000000     0.359800000000     0.0723995  
H        H      0.860800000000     0.572200000000     0.371700000000     0.0723995  
H        H      0.871200000000     0.414400000000     0.403800000000     0.0723995  
H        H      0.858200000000     0.906700000000     0.151500000000     0.0723995  
H        H      0.952900000000     0.000500000000     0.203900000000     0.0723995  
H        H      0.188000000000     0.100000000000     0.109200000000     0.0723995  
H        H      0.095700000000     0.005100000000     0.056300000000     0.0723995  
H        H      0.556500000000     0.714000000000     0.954900000000     0.0723995  
H        H      0.439400000000     0.787800000000     0.900700000000     0.0723995  
H        H      0.578000000000     0.024100000000     0.948900000000     0.0723995  
H        H      0.691600000000     0.944800000000     0.001700000000     0.0723995  
H        H      0.599400000000     0.985400000000     0.832500000000     0.0723995  
H        H      0.715300000000     0.066900000000     0.780600000000     0.0723995  
H        H      0.528400000000     0.286800000000     0.805200000000     0.0723995  
H        H      0.408900000000     0.217900000000     0.859800000000     0.0723995  
H        H      0.360800000000     0.927800000000     0.871700000000     0.0723995  
H        H      0.371200000000     0.085600000000     0.903800000000     0.0723995  
H        H      0.641800000000     0.593300000000     0.151500000000     0.0723995  
H        H      0.547100000000     0.499500000000     0.203900000000     0.0723995  
H        H      0.312000000000     0.400000000000     0.109200000000     0.0723995  
H        H      0.404300000000     0.494900000000     0.056300000000     0.0723995  
H        H      0.943500000000     0.786000000000     0.954900000000     0.0723995  
H        H      0.060600000000     0.712200000000     0.900700000000     0.0723995  
H        H      0.922000000000     0.475900000000     0.948900000000     0.0723995  
H        H      0.808400000000     0.555200000000     0.001700000000     0.0723995  
H        H      0.900600000000     0.514600000000     0.832500000000     0.0723995  
H        H      0.784700000000     0.433100000000     0.780600000000     0.0723995  
H        H      0.971600000000     0.213200000000     0.805200000000     0.0723995  
H        H      0.091100000000     0.282100000000     0.859800000000     0.0723995  
H        H      0.139200000000     0.572200000000     0.871700000000     0.0723995  
H        H      0.128800000000     0.414400000000     0.903800000000     0.0723995  
H        H      0.141800000000     0.093300000000     0.848500000000     0.0723995  
H        H      0.047100000000     0.999500000000     0.796100000000     0.0723995  
H        H      0.812000000000     0.900000000000     0.890800000000     0.0723995  
H        H      0.904300000000     0.994900000000     0.943700000000     0.0723995  
H        H      0.443500000000     0.286000000000     0.045100000000     0.0723995  
H        H      0.560600000000     0.212200000000     0.099300000000     0.0723995  
H        H      0.422000000000     0.975900000000     0.051100000000     0.0723995  
H        H      0.308400000000     0.055200000000     0.998300000000     0.0723995  
H        H      0.400600000000     0.014600000000     0.167500000000     0.0723995  
H        H      0.284700000000     0.933100000000     0.219400000000     0.0723995  
H        H      0.471600000000     0.713200000000     0.194800000000     0.0723995  
H        H      0.591100000000     0.782100000000     0.140200000000     0.0723995  
H        H      0.639200000000     0.072200000000     0.128300000000     0.0723995  
H        H      0.628800000000     0.914400000000     0.096200000000     0.0723995  
H        H      0.358200000000     0.406700000000     0.848500000000     0.0723995  
H        H      0.452900000000     0.500500000000     0.796100000000     0.0723995  
H        H      0.688000000000     0.600000000000     0.890800000000     0.0723995  
H        H      0.595700000000     0.505100000000     0.943700000000     0.0723995  
H        H      0.056500000000     0.214000000000     0.045100000000     0.0723995  
H        H      0.939400000000     0.287800000000     0.099300000000     0.0723995  
H        H      0.078000000000     0.524100000000     0.051100000000     0.0723995  
H        H      0.191600000000     0.444800000000     0.998300000000     0.0723995  
H        H      0.099400000000     0.485400000000     0.167500000000     0.0723995  
H        H      0.215300000000     0.566900000000     0.219400000000     0.0723995  
H        H      0.028400000000     0.786800000000     0.194800000000     0.0723995  
H        H      0.908900000000     0.717900000000     0.140200000000     0.0723995  
H        H      0.860800000000     0.427800000000     0.128300000000     0.0723995  
H        H      0.871200000000     0.585600000000     0.096200000000     0.0723995  
H        H      0.858200000000     0.093300000000     0.348500000000     0.0723995  
H        H      0.952900000000     0.999500000000     0.296100000000     0.0723995  
H        H      0.188000000000     0.900000000000     0.390800000000     0.0723995  
H        H      0.095700000000     0.994900000000     0.443700000000     0.0723995  
H        H      0.556500000000     0.286000000000     0.545100000000     0.0723995  
H        H      0.439400000000     0.212200000000     0.599300000000     0.0723995  
H        H      0.578000000000     0.975900000000     0.551100000000     0.0723995  
H        H      0.691600000000     0.055200000000     0.498300000000     0.0723995  
H        H      0.599400000000     0.014600000000     0.667500000000     0.0723995  
H        H      0.715300000000     0.933100000000     0.719400000000     0.0723995  
H        H      0.528400000000     0.713200000000     0.694800000000     0.0723995  
H        H      0.408900000000     0.782100000000     0.640200000000     0.0723995  
H        H      0.360800000000     0.072200000000     0.628300000000     0.0723995  
H        H      0.371200000000     0.914400000000     0.596200000000     0.0723995  
H        H      0.641800000000     0.406700000000     0.348500000000     0.0723995  
H        H      0.547100000000     0.500500000000     0.296100000000     0.0723995  
H        H      0.312000000000     0.600000000000     0.390800000000     0.0723995  
H        H      0.404300000000     0.505100000000     0.443700000000     0.0723995  
H        H      0.943500000000     0.214000000000     0.545100000000     0.0723995  
H        H      0.060600000000     0.287800000000     0.599300000000     0.0723995  
H        H      0.922000000000     0.524100000000     0.551100000000     0.0723995  
H        H      0.808400000000     0.444800000000     0.498300000000     0.0723995  
H        H      0.900600000000     0.485400000000     0.667500000000     0.0723995  
H        H      0.784700000000     0.566900000000     0.719400000000     0.0723995  
H        H      0.971600000000     0.786800000000     0.694800000000     0.0723995  
H        H      0.091100000000     0.717900000000     0.640200000000     0.0723995  
H        H      0.139200000000     0.427800000000     0.628300000000     0.0723995  
H        H      0.128800000000     0.585600000000     0.596200000000     0.0723995  
C        C      0.094100000000     0.883600000000     0.563200000000     0.0290551  
C        C      0.034200000000     0.946800000000     0.597980000000     0.0290551  
C        C      0.075400000000     0.945800000000     0.642690000000     0.0290551  
C        C      0.018600000000     0.002100000000     0.674000000000     0.0290551  
C        C      0.920200000000     0.061000000000     0.662100000000     0.0290551  
C        C      0.878800000000     0.061100000000     0.617900000000     0.0290551  
C        C      0.934400000000     0.004400000000     0.585990000000     0.0290551  
C        C      0.861700000000     0.124700000000     0.695900000000     0.0290551  
C        C      0.440000000000     0.777100000000     0.453900000000     0.0290551  
C        C      0.512100000000     0.821000000000     0.421500000000     0.0290551  
C        C      0.512400000000     0.915600000000     0.419900000000     0.0290551  
C        C      0.429700000000     0.961200000000     0.450100000000     0.0290551  
C        C      0.360500000000     0.912900000000     0.481420000000     0.0290551  
C        C      0.511600000000     0.093300000000     0.351830000000     0.0290551  
C        C      0.417100000000     0.046800000000     0.327800000000     0.0290551  
C        C      0.349400000000     0.097000000000     0.296730000000     0.0290551  
C        C      0.456900000000     0.225600000000     0.311010000000     0.0290551  
C        C      0.529800000000     0.184900000000     0.343460000000     0.0290551  
C        C      0.405900000000     0.616400000000     0.563200000000     0.0290551  
C        C      0.465800000000     0.553200000000     0.597980000000     0.0290551  
C        C      0.424600000000     0.554200000000     0.642690000000     0.0290551  
C        C      0.481400000000     0.497900000000     0.674000000000     0.0290551  
C        C      0.579800000000     0.439000000000     0.662100000000     0.0290551  
C        C      0.621200000000     0.438900000000     0.617900000000     0.0290551  
C        C      0.565600000000     0.495600000000     0.585990000000     0.0290551  
C        C      0.638300000000     0.375300000000     0.695900000000     0.0290551  
C        C      0.060000000000     0.722900000000     0.453900000000     0.0290551  
C        C      0.987900000000     0.679000000000     0.421500000000     0.0290551  
C        C      0.987600000000     0.584400000000     0.419900000000     0.0290551  
C        C      0.070300000000     0.538800000000     0.450100000000     0.0290551  
C        C      0.139500000000     0.587100000000     0.481420000000     0.0290551  
C        C      0.988400000000     0.406700000000     0.351830000000     0.0290551  
C        C      0.082900000000     0.453200000000     0.327800000000     0.0290551  
C        C      0.150600000000     0.403000000000     0.296730000000     0.0290551  
C        C      0.043100000000     0.274400000000     0.311010000000     0.0290551  
C        C      0.970200000000     0.315100000000     0.343460000000     0.0290551  
C        C      0.905900000000     0.883600000000     0.063200000000     0.0290551  
C        C      0.965800000000     0.946800000000     0.097980000000     0.0290551  
C        C      0.924600000000     0.945800000000     0.142690000000     0.0290551  
C        C      0.981400000000     0.002100000000     0.174000000000     0.0290551  
C        C      0.079800000000     0.061000000000     0.162100000000     0.0290551  
C        C      0.121200000000     0.061100000000     0.117900000000     0.0290551  
C        C      0.065600000000     0.004400000000     0.085990000000     0.0290551  
C        C      0.138300000000     0.124700000000     0.195900000000     0.0290551  
C        C      0.560000000000     0.777100000000     0.953900000000     0.0290551  
C        C      0.487900000000     0.821000000000     0.921500000000     0.0290551  
C        C      0.487600000000     0.915600000000     0.919900000000     0.0290551  
C        C      0.570300000000     0.961200000000     0.950100000000     0.0290551  
C        C      0.639500000000     0.912900000000     0.981420000000     0.0290551  
C        C      0.488400000000     0.093300000000     0.851830000000     0.0290551  
C        C      0.582900000000     0.046800000000     0.827800000000     0.0290551  
C        C      0.650600000000     0.097000000000     0.796730000000     0.0290551  
C        C      0.543100000000     0.225600000000     0.811010000000     0.0290551  
C        C      0.470200000000     0.184900000000     0.843460000000     0.0290551  
C        C      0.594100000000     0.616400000000     0.063200000000     0.0290551  
C        C      0.534200000000     0.553200000000     0.097980000000     0.0290551  
C        C      0.575400000000     0.554200000000     0.142690000000     0.0290551  
C        C      0.518600000000     0.497900000000     0.174000000000     0.0290551  
C        C      0.420200000000     0.439000000000     0.162100000000     0.0290551  
C        C      0.378800000000     0.438900000000     0.117900000000     0.0290551  
C        C      0.434400000000     0.495600000000     0.085990000000     0.0290551  
C        C      0.361700000000     0.375300000000     0.195900000000     0.0290551  
C        C      0.940000000000     0.722900000000     0.953900000000     0.0290551  
C        C      0.012100000000     0.679000000000     0.921500000000     0.0290551  
C        C      0.012400000000     0.584400000000     0.919900000000     0.0290551  
C        C      0.929700000000     0.538800000000     0.950100000000     0.0290551  
C        C      0.860500000000     0.587100000000     0.981420000000     0.0290551  
C        C      0.011600000000     0.406700000000     0.851830000000     0.0290551  
C        C      0.917100000000     0.453200000000     0.827800000000     0.0290551  
C        C      0.849400000000     0.403000000000     0.796730000000     0.0290551  
C        C      0.956900000000     0.274400000000     0.811010000000     0.0290551  
C        C      0.029800000000     0.315100000000     0.843460000000     0.0290551  
C        C      0.094100000000     0.116400000000     0.936800000000     0.0290551  
C        C      0.034200000000     0.053200000000     0.902020000000     0.0290551  
C        C      0.075400000000     0.054200000000     0.857310000000     0.0290551  
C        C      0.018600000000     0.997900000000     0.826000000000     0.0290551  
C        C      0.920200000000     0.939000000000     0.837900000000     0.0290551  
C        C      0.878800000000     0.938900000000     0.882100000000     0.0290551  
C        C      0.934400000000     0.995600000000     0.914010000000     0.0290551  
C        C      0.861700000000     0.875300000000     0.804100000000     0.0290551  
C        C      0.440000000000     0.222900000000     0.046100000000     0.0290551  
C        C      0.512100000000     0.179000000000     0.078500000000     0.0290551  
C        C      0.512400000000     0.084400000000     0.080100000000     0.0290551  
C        C      0.429700000000     0.038800000000     0.049900000000     0.0290551  
C        C      0.360500000000     0.087100000000     0.018580000000     0.0290551  
C        C      0.511600000000     0.906700000000     0.148170000000     0.0290551  
C        C      0.417100000000     0.953200000000     0.172200000000     0.0290551  
C        C      0.349400000000     0.903000000000     0.203270000000     0.0290551  
C        C      0.456900000000     0.774400000000     0.188990000000     0.0290551  
C        C      0.529800000000     0.815100000000     0.156540000000     0.0290551  
C        C      0.405900000000     0.383600000000     0.936800000000     0.0290551  
C        C      0.465800000000     0.446800000000     0.902020000000     0.0290551  
C        C      0.424600000000     0.445800000000     0.857310000000     0.0290551  
C        C      0.481400000000     0.502100000000     0.826000000000     0.0290551  
C        C      0.579800000000     0.561000000000     0.837900000000     0.0290551  
C        C      0.621200000000     0.561100000000     0.882100000000     0.0290551  
C        C      0.565600000000     0.504400000000     0.914010000000     0.0290551  
C        C      0.638300000000     0.624700000000     0.804100000000     0.0290551  
C        C      0.060000000000     0.277100000000     0.046100000000     0.0290551  
C        C      0.987900000000     0.321000000000     0.078500000000     0.0290551  
C        C      0.987600000000     0.415600000000     0.080100000000     0.0290551  
C        C      0.070300000000     0.461200000000     0.049900000000     0.0290551  
C        C      0.139500000000     0.412900000000     0.018580000000     0.0290551  
C        C      0.988400000000     0.593300000000     0.148170000000     0.0290551  
C        C      0.082900000000     0.546800000000     0.172200000000     0.0290551  
C        C      0.150600000000     0.597000000000     0.203270000000     0.0290551  
C        C      0.043100000000     0.725600000000     0.188990000000     0.0290551  
C        C      0.970200000000     0.684900000000     0.156540000000     0.0290551  
C        C      0.905900000000     0.116400000000     0.436800000000     0.0290551  
C        C      0.965800000000     0.053200000000     0.402020000000     0.0290551  
C        C      0.924600000000     0.054200000000     0.357310000000     0.0290551  
C        C      0.981400000000     0.997900000000     0.326000000000     0.0290551  
C        C      0.079800000000     0.939000000000     0.337900000000     0.0290551  
C        C      0.121200000000     0.938900000000     0.382100000000     0.0290551  
C        C      0.065600000000     0.995600000000     0.414010000000     0.0290551  
C        C      0.138300000000     0.875300000000     0.304100000000     0.0290551  
C        C      0.560000000000     0.222900000000     0.546100000000     0.0290551  
C        C      0.487900000000     0.179000000000     0.578500000000     0.0290551  
C        C      0.487600000000     0.084400000000     0.580100000000     0.0290551  
C        C      0.570300000000     0.038800000000     0.549900000000     0.0290551  
C        C      0.639500000000     0.087100000000     0.518580000000     0.0290551  
C        C      0.488400000000     0.906700000000     0.648170000000     0.0290551  
C        C      0.582900000000     0.953200000000     0.672200000000     0.0290551  
C        C      0.650600000000     0.903000000000     0.703270000000     0.0290551  
C        C      0.543100000000     0.774400000000     0.688990000000     0.0290551  
C        C      0.470200000000     0.815100000000     0.656540000000     0.0290551  
C        C      0.594100000000     0.383600000000     0.436800000000     0.0290551  
C        C      0.534200000000     0.446800000000     0.402020000000     0.0290551  
C        C      0.575400000000     0.445800000000     0.357310000000     0.0290551  
C        C      0.518600000000     0.502100000000     0.326000000000     0.0290551  
C        C      0.420200000000     0.561000000000     0.337900000000     0.0290551  
C        C      0.378800000000     0.561100000000     0.382100000000     0.0290551  
C        C      0.434400000000     0.504400000000     0.414010000000     0.0290551  
C        C      0.361700000000     0.624700000000     0.304100000000     0.0290551  
C        C      0.940000000000     0.277100000000     0.546100000000     0.0290551  
C        C      0.012100000000     0.321000000000     0.578500000000     0.0290551  
C        C      0.012400000000     0.415600000000     0.580100000000     0.0290551  
C        C      0.929700000000     0.461200000000     0.549900000000     0.0290551  
C        C      0.860500000000     0.412900000000     0.518580000000     0.0290551  
C        C      0.011600000000     0.593300000000     0.648170000000     0.0290551  
C        C      0.917100000000     0.546800000000     0.672200000000     0.0290551  
C        C      0.849400000000     0.597000000000     0.703270000000     0.0290551  
C        C      0.956900000000     0.725600000000     0.688990000000     0.0290551  
C        C      0.029800000000     0.684900000000     0.656540000000     0.0290551  
N        N      0.363500000000     0.820900000000     0.484540000000    -0.193748   
N        N      0.588500000000     0.958800000000     0.388970000000    -0.193748   
N        N      0.584900000000     0.052700000000     0.385180000000    -0.193748   
N        N      0.366200000000     0.183600000000     0.287210000000    -0.193748   
N        N      0.136500000000     0.679100000000     0.484540000000    -0.193748   
N        N      0.911500000000     0.541200000000     0.388970000000    -0.193748   
N        N      0.915100000000     0.447300000000     0.385180000000    -0.193748   
N        N      0.133800000000     0.316400000000     0.287210000000    -0.193748   
N        N      0.636500000000     0.820900000000     0.984540000000    -0.193748   
N        N      0.411500000000     0.958800000000     0.888970000000    -0.193748   
N        N      0.415100000000     0.052700000000     0.885180000000    -0.193748   
N        N      0.633800000000     0.183600000000     0.787210000000    -0.193748   
N        N      0.863500000000     0.679100000000     0.984540000000    -0.193748   
N        N      0.088500000000     0.541200000000     0.888970000000    -0.193748   
N        N      0.084900000000     0.447300000000     0.885180000000    -0.193748   
N        N      0.866200000000     0.316400000000     0.787210000000    -0.193748   
N        N      0.363500000000     0.179100000000     0.015460000000    -0.193748   
N        N      0.588500000000     0.041200000000     0.111030000000    -0.193748   
N        N      0.584900000000     0.947300000000     0.114820000000    -0.193748   
N        N      0.366200000000     0.816400000000     0.212790000000    -0.193748   
N        N      0.136500000000     0.320900000000     0.015460000000    -0.193748   
N        N      0.911500000000     0.458800000000     0.111030000000    -0.193748   
N        N      0.915100000000     0.552700000000     0.114820000000    -0.193748   
N        N      0.133800000000     0.683600000000     0.212790000000    -0.193748   
N        N      0.636500000000     0.179100000000     0.515460000000    -0.193748   
N        N      0.411500000000     0.041200000000     0.611030000000    -0.193748   
N        N      0.415100000000     0.947300000000     0.614820000000    -0.193748   
N        N      0.633800000000     0.816400000000     0.712790000000    -0.193748   
N        N      0.863500000000     0.320900000000     0.515460000000    -0.193748   
N        N      0.088500000000     0.458800000000     0.611030000000    -0.193748   
N        N      0.084900000000     0.552700000000     0.614820000000    -0.193748   
N        N      0.866200000000     0.683600000000     0.712790000000    -0.193748   
O        O      0.193200000000     0.840700000000     0.574740000000    -0.29458    
O        O      0.046000000000     0.879700000000     0.524840000000    -0.29458    
O        O      0.750500000000     0.149200000000     0.689800000000    -0.29458    
O        O      0.919700000000     0.147300000000     0.728300000000    -0.29458    
O        O      0.306800000000     0.659300000000     0.574740000000    -0.29458    
O        O      0.454000000000     0.620300000000     0.524840000000    -0.29458    
O        O      0.749500000000     0.350800000000     0.689800000000    -0.29458    
O        O      0.580300000000     0.352700000000     0.728300000000    -0.29458    
O        O      0.806800000000     0.840700000000     0.074740000000    -0.29458    
O        O      0.954000000000     0.879700000000     0.024840000000    -0.29458    
O        O      0.249500000000     0.149200000000     0.189800000000    -0.29458    
O        O      0.080300000000     0.147300000000     0.228300000000    -0.29458    
O        O      0.693200000000     0.659300000000     0.074740000000    -0.29458    
O        O      0.546000000000     0.620300000000     0.024840000000    -0.29458    
O        O      0.250500000000     0.350800000000     0.189800000000    -0.29458    
O        O      0.419700000000     0.352700000000     0.228300000000    -0.29458    
O        O      0.193200000000     0.159300000000     0.925260000000    -0.29458    
O        O      0.046000000000     0.120300000000     0.975160000000    -0.29458    
O        O      0.750500000000     0.850800000000     0.810200000000    -0.29458    
O        O      0.919700000000     0.852700000000     0.771700000000    -0.29458    
O        O      0.306800000000     0.340700000000     0.925260000000    -0.29458    
O        O      0.454000000000     0.379700000000     0.975160000000    -0.29458    
O        O      0.749500000000     0.649200000000     0.810200000000    -0.29458    
O        O      0.580300000000     0.647300000000     0.771700000000    -0.29458    
O        O      0.806800000000     0.159300000000     0.425260000000    -0.29458    
O        O      0.954000000000     0.120300000000     0.475160000000    -0.29458    
O        O      0.249500000000     0.850800000000     0.310200000000    -0.29458    
O        O      0.080300000000     0.852700000000     0.271700000000    -0.29458    
O        O      0.693200000000     0.340700000000     0.425260000000    -0.29458    
O        O      0.546000000000     0.379700000000     0.475160000000    -0.29458    
O        O      0.250500000000     0.649200000000     0.310200000000    -0.29458    
O        O      0.419700000000     0.647300000000     0.271700000000    -0.29458    


