data_IYIHUU_original

_audit_creation_method RASPA-1.0
_audit_creation_date 2022-1-31
_audit_author_name 'Felipe Lopes de Oliveira <felipe.lopes.oliveira@ibm.com>'

_cell_length_a    11.106
_cell_length_b    15.916
_cell_length_c    16.224
_cell_angle_alpha 90
_cell_angle_beta  101.594
_cell_angle_gamma 90
_cell_volume      2809.29

_symmetry_cell_setting          triclinic
_symmetry_space_group_name_Hall 'P 1'
_symmetry_space_group_name_H-M  'P 1'
_symmetry_Int_Tables_number     1

_symmetry_equiv_pos_as_xyz 'x,y,z'

loop_
_atom_site_label
_atom_site_type_symbol
_atom_site_fract_x
_atom_site_fract_y
_atom_site_fract_z
_atom_site_charge
Zn       Zn     0.026960000000     0.500000000000     0.592600000000     0.480466   
Zn       Zn     0.973040000000     0.500000000000     0.407400000000     0.480466   
H        H      0.277260000000     0.705340000000     0.640120000000     0.0451667  
H        H      0.408080000000     0.833940000000     0.639620000000     0.0451667  
H        H      0.327320000000     0.829500000000     0.364900000000     0.0451667  
H        H      0.203920000000     0.701720000000     0.365080000000     0.0451667  
H        H      0.722740000000     0.705340000000     0.359880000000     0.0451667  
H        H      0.591920000000     0.833940000000     0.360380000000     0.0451667  
H        H      0.672680000000     0.829500000000     0.635100000000     0.0451667  
H        H      0.796520000000     0.701100000000     0.634500000000     0.0451667  
H        H      0.722740000000     0.294660000000     0.359880000000     0.0451667  
H        H      0.591920000000     0.166060000000     0.360380000000     0.0451667  
H        H      0.672680000000     0.170500000000     0.635100000000     0.0451667  
H        H      0.796520000000     0.298900000000     0.634500000000     0.0451667  
H        H      0.277260000000     0.294660000000     0.640120000000     0.0451667  
H        H      0.408080000000     0.166060000000     0.639620000000     0.0451667  
H        H      0.327320000000     0.170500000000     0.364900000000     0.0451667  
H        H      0.203920000000     0.298280000000     0.365080000000     0.0451667  
H        H      0.853860000000     0.500000000000     0.700500000000     0.0451667  
H        H      0.855660000000     0.500000000000     0.858760000000     0.0451667  
H        H      0.242660000000     0.500000000000     0.750140000000     0.0451667  
H        H      0.163040000000     0.500000000000     0.025720000000     0.0451667  
H        H      0.146140000000     0.500000000000     0.299500000000     0.0451667  
H        H      0.144340000000     0.500000000000     0.141240000000     0.0451667  
H        H      0.757340000000     0.500000000000     0.249860000000     0.0451667  
H        H      0.836960000000     0.500000000000     0.974280000000     0.0451667  
H        H      0.479940000000     0.500000000000     0.988880000000     0.0451667  
H        H      0.520060000000     0.500000000000     0.011120000000     0.0451667  
C        C      0.155200000000     0.616700000000     0.504300000000     0.021804   
C        C      0.239400000000     0.694500000000     0.503900000000     0.021804   
C        C      0.290900000000     0.732900000000     0.577800000000     0.021804   
C        C      0.359400000000     0.804900000000     0.577600000000     0.021804   
C        C      0.368800000000     0.841900000000     0.501400000000     0.021804   
C        C      0.316000000000     0.802300000000     0.427900000000     0.021804   
C        C      0.250200000000     0.731300000000     0.427400000000     0.021804   
C        C      0.440100000000     0.922500000000     0.503100000000     0.021804   
C        C      0.844800000000     0.616700000000     0.495700000000     0.021804   
C        C      0.760600000000     0.694500000000     0.496100000000     0.021804   
C        C      0.709100000000     0.732900000000     0.422200000000     0.021804   
C        C      0.640600000000     0.804900000000     0.422400000000     0.021804   
C        C      0.631200000000     0.841900000000     0.498600000000     0.021804   
C        C      0.684000000000     0.802300000000     0.572100000000     0.021804   
C        C      0.749800000000     0.731300000000     0.572600000000     0.021804   
C        C      0.559900000000     0.922500000000     0.496900000000     0.021804   
C        C      0.844800000000     0.383300000000     0.495700000000     0.021804   
C        C      0.760600000000     0.305500000000     0.496100000000     0.021804   
C        C      0.709100000000     0.267100000000     0.422200000000     0.021804   
C        C      0.640600000000     0.195100000000     0.422400000000     0.021804   
C        C      0.631200000000     0.158100000000     0.498600000000     0.021804   
C        C      0.684000000000     0.197700000000     0.572100000000     0.021804   
C        C      0.749800000000     0.268700000000     0.572600000000     0.021804   
C        C      0.559900000000     0.077500000000     0.496900000000     0.021804   
C        C      0.155200000000     0.383300000000     0.504300000000     0.021804   
C        C      0.239400000000     0.305500000000     0.503900000000     0.021804   
C        C      0.290900000000     0.267100000000     0.577800000000     0.021804   
C        C      0.359400000000     0.195100000000     0.577600000000     0.021804   
C        C      0.368800000000     0.158100000000     0.501400000000     0.021804   
C        C      0.316000000000     0.197700000000     0.427900000000     0.021804   
C        C      0.250200000000     0.268700000000     0.427400000000     0.021804   
C        C      0.440100000000     0.077500000000     0.503100000000     0.021804   
C        C      0.378100000000     0.000000000000     0.503200000000     0.021804   
C        C      0.621900000000     0.000000000000     0.496800000000     0.021804   
C        C      0.945000000000     0.500000000000     0.747700000000     0.021804   
C        C      0.946000000000     0.500000000000     0.835600000000     0.021804   
C        C      0.052600000000     0.500000000000     0.896600000000     0.021804   
C        C      0.159000000000     0.500000000000     0.863000000000     0.021804   
C        C      0.154000000000     0.500000000000     0.775400000000     0.021804   
C        C      0.067000000000     0.500000000000     0.984400000000     0.021804   
C        C      0.274000000000     0.500000000000     0.917000000000     0.021804   
C        C      0.380000000000     0.500000000000     0.954000000000     0.021804   
C        C      0.055000000000     0.500000000000     0.252300000000     0.021804   
C        C      0.054000000000     0.500000000000     0.164400000000     0.021804   
C        C      0.947400000000     0.500000000000     0.103400000000     0.021804   
C        C      0.841000000000     0.500000000000     0.137000000000     0.021804   
C        C      0.846000000000     0.500000000000     0.224600000000     0.021804   
C        C      0.933000000000     0.500000000000     0.015600000000     0.021804   
C        C      0.726000000000     0.500000000000     0.083000000000     0.021804   
C        C      0.620000000000     0.500000000000     0.046000000000     0.021804   
Br       Br     0.207100000000     0.000000000000     0.503600000000    -0.222027   
Br       Br     0.792900000000     0.000000000000     0.496400000000    -0.222027   
N        N      0.052200000000     0.500000000000     0.712100000000    -0.147194   
N        N      0.947800000000     0.500000000000     0.287900000000    -0.147194   
O        O      0.147700000000     0.590400000000     0.573900000000    -0.310879   
O        O      0.106900000000     0.589800000000     0.435100000000    -0.310879   
O        O      0.852300000000     0.590400000000     0.426100000000    -0.310879   
O        O      0.893100000000     0.589800000000     0.564900000000    -0.310879   
O        O      0.852300000000     0.409600000000     0.426100000000    -0.310879   
O        O      0.893100000000     0.410200000000     0.564900000000    -0.310879   
O        O      0.147700000000     0.409600000000     0.573900000000    -0.310879   
O        O      0.106900000000     0.410200000000     0.435100000000    -0.310879   


