data_IYUJAO_original

_audit_creation_method RASPA-1.0
_audit_creation_date 2022-1-30
_audit_author_name 'Felipe Lopes de Oliveira <felipe.lopes.oliveira@ibm.com>'

_cell_length_a    16.1292
_cell_length_b    16.1292
_cell_length_c    16.1292
_cell_angle_alpha 92.5495
_cell_angle_beta  92.5495
_cell_angle_gamma 92.5495
_cell_volume      4183.19

_symmetry_cell_setting          triclinic
_symmetry_space_group_name_Hall 'P 1'
_symmetry_space_group_name_H-M  'P 1'
_symmetry_Int_Tables_number     1

_symmetry_equiv_pos_as_xyz 'x,y,z'

loop_
_atom_site_label
_atom_site_type_symbol
_atom_site_fract_x
_atom_site_fract_y
_atom_site_fract_z
_atom_site_charge
In       In     0.740440000000     0.161090000000     0.409890000000     2.53738    
In       In     0.409890000000     0.740440000000     0.161090000000     2.53738    
In       In     0.161090000000     0.409890000000     0.740440000000     2.53738    
In       In     0.838910000000     0.259560000000     0.590110000000     2.53738    
In       In     0.259560000000     0.590110000000     0.838910000000     2.53738    
In       In     0.590110000000     0.838910000000     0.259560000000     2.53738    
In       In     0.659360000000     0.340640000000     0.500000000000     2.53738    
In       In     0.500000000000     0.659360000000     0.340640000000     2.53738    
In       In     0.340640000000     0.500000000000     0.659360000000     2.53738    
H        H      0.490800000000     0.026900000000     0.388300000000     0.0547347  
H        H      0.356100000000     0.977500000000     0.350400000000     0.0547347  
H        H      0.280300000000     0.208200000000     0.356000000000     0.0547347  
H        H      0.411500000000     0.256900000000     0.403200000000     0.0547347  
H        H      0.973200000000     0.128100000000     0.284200000000     0.0547347  
H        H      0.098600000000     0.083900000000     0.236300000000     0.0547347  
H        H      0.196300000000     0.127600000000     0.472300000000     0.0547347  
H        H      0.075900000000     0.168000000000     0.511800000000     0.0547347  
H        H      0.655700000000     0.234900000000     0.165100000000     0.0547347  
H        H      0.609200000000     0.279900000000     0.036700000000     0.0547347  
H        H      0.598600000000     0.511700000000     0.135600000000     0.0547347  
H        H      0.635200000000     0.466600000000     0.264700000000     0.0547347  
H        H      0.388300000000     0.490800000000     0.026900000000     0.0547347  
H        H      0.350400000000     0.356100000000     0.977500000000     0.0547347  
H        H      0.356000000000     0.280300000000     0.208200000000     0.0547347  
H        H      0.403200000000     0.411500000000     0.256900000000     0.0547347  
H        H      0.284200000000     0.973200000000     0.128100000000     0.0547347  
H        H      0.236300000000     0.098600000000     0.083900000000     0.0547347  
H        H      0.472300000000     0.196300000000     0.127600000000     0.0547347  
H        H      0.511800000000     0.075900000000     0.168000000000     0.0547347  
H        H      0.165100000000     0.655700000000     0.234900000000     0.0547347  
H        H      0.036700000000     0.609200000000     0.279900000000     0.0547347  
H        H      0.135600000000     0.598600000000     0.511700000000     0.0547347  
H        H      0.264700000000     0.635200000000     0.466600000000     0.0547347  
H        H      0.026900000000     0.388300000000     0.490800000000     0.0547347  
H        H      0.977500000000     0.350400000000     0.356100000000     0.0547347  
H        H      0.208200000000     0.356000000000     0.280300000000     0.0547347  
H        H      0.256900000000     0.403200000000     0.411500000000     0.0547347  
H        H      0.128100000000     0.284200000000     0.973200000000     0.0547347  
H        H      0.083900000000     0.236300000000     0.098600000000     0.0547347  
H        H      0.127600000000     0.472300000000     0.196300000000     0.0547347  
H        H      0.168000000000     0.511800000000     0.075900000000     0.0547347  
H        H      0.234900000000     0.165100000000     0.655700000000     0.0547347  
H        H      0.279900000000     0.036700000000     0.609200000000     0.0547347  
H        H      0.511700000000     0.135600000000     0.598600000000     0.0547347  
H        H      0.466600000000     0.264700000000     0.635200000000     0.0547347  
H        H      0.973100000000     0.509200000000     0.611700000000     0.0547347  
H        H      0.022500000000     0.643900000000     0.649600000000     0.0547347  
H        H      0.791800000000     0.719700000000     0.644000000000     0.0547347  
H        H      0.743100000000     0.588500000000     0.596800000000     0.0547347  
H        H      0.871900000000     0.026800000000     0.715800000000     0.0547347  
H        H      0.916100000000     0.901400000000     0.763700000000     0.0547347  
H        H      0.872400000000     0.803700000000     0.527700000000     0.0547347  
H        H      0.832000000000     0.924100000000     0.488200000000     0.0547347  
H        H      0.765100000000     0.344300000000     0.834900000000     0.0547347  
H        H      0.720100000000     0.390800000000     0.963300000000     0.0547347  
H        H      0.488300000000     0.401400000000     0.864400000000     0.0547347  
H        H      0.533400000000     0.364800000000     0.735300000000     0.0547347  
H        H      0.509200000000     0.611700000000     0.973100000000     0.0547347  
H        H      0.643900000000     0.649600000000     0.022500000000     0.0547347  
H        H      0.719700000000     0.644000000000     0.791800000000     0.0547347  
H        H      0.588500000000     0.596800000000     0.743100000000     0.0547347  
H        H      0.026800000000     0.715800000000     0.871900000000     0.0547347  
H        H      0.901400000000     0.763700000000     0.916100000000     0.0547347  
H        H      0.803700000000     0.527700000000     0.872400000000     0.0547347  
H        H      0.924100000000     0.488200000000     0.832000000000     0.0547347  
H        H      0.344300000000     0.834900000000     0.765100000000     0.0547347  
H        H      0.390800000000     0.963300000000     0.720100000000     0.0547347  
H        H      0.401400000000     0.864400000000     0.488300000000     0.0547347  
H        H      0.364800000000     0.735300000000     0.533400000000     0.0547347  
H        H      0.611700000000     0.973100000000     0.509200000000     0.0547347  
H        H      0.649600000000     0.022500000000     0.643900000000     0.0547347  
H        H      0.644000000000     0.791800000000     0.719700000000     0.0547347  
H        H      0.596800000000     0.743100000000     0.588500000000     0.0547347  
H        H      0.715800000000     0.871900000000     0.026800000000     0.0547347  
H        H      0.763700000000     0.916100000000     0.901400000000     0.0547347  
H        H      0.527700000000     0.872400000000     0.803700000000     0.0547347  
H        H      0.488200000000     0.832000000000     0.924100000000     0.0547347  
H        H      0.834900000000     0.765100000000     0.344300000000     0.0547347  
H        H      0.963300000000     0.720100000000     0.390800000000     0.0547347  
H        H      0.864400000000     0.488300000000     0.401400000000     0.0547347  
H        H      0.735300000000     0.533400000000     0.364800000000     0.0547347  
C        C      0.551200000000     0.179800000000     0.430000000000     0.0660102  
C        C      0.465700000000     0.147700000000     0.400000000000     0.0660102  
C        C      0.448500000000     0.063900000000     0.383400000000     0.0660102  
C        C      0.368400000000     0.034100000000     0.359200000000     0.0660102  
C        C      0.308000000000     0.090200000000     0.348800000000     0.0660102  
C        C      0.322500000000     0.171500000000     0.363700000000     0.0660102  
C        C      0.401500000000     0.200400000000     0.390800000000     0.0660102  
C        C      0.931500000000     0.183800000000     0.432200000000     0.0660102  
C        C      0.012700000000     0.152500000000     0.402100000000     0.0660102  
C        C      0.019300000000     0.126900000000     0.320900000000     0.0660102  
C        C      0.093400000000     0.099300000000     0.292100000000     0.0660102  
C        C      0.159500000000     0.095100000000     0.349600000000     0.0660102  
C        C      0.151000000000     0.125900000000     0.434400000000     0.0660102  
C        C      0.081100000000     0.150500000000     0.456600000000     0.0660102  
C        C      0.677400000000     0.317400000000     0.310500000000     0.0660102  
C        C      0.648500000000     0.346100000000     0.228200000000     0.0660102  
C        C      0.642200000000     0.289900000000     0.159300000000     0.0660102  
C        C      0.615700000000     0.316800000000     0.082700000000     0.0660102  
C        C      0.598900000000     0.402100000000     0.076300000000     0.0660102  
C        C      0.608000000000     0.455900000000     0.142100000000     0.0660102  
C        C      0.631100000000     0.429300000000     0.218800000000     0.0660102  
C        C      0.430000000000     0.551200000000     0.179800000000     0.0660102  
C        C      0.400000000000     0.465700000000     0.147700000000     0.0660102  
C        C      0.383400000000     0.448500000000     0.063900000000     0.0660102  
C        C      0.359200000000     0.368400000000     0.034100000000     0.0660102  
C        C      0.348800000000     0.308000000000     0.090200000000     0.0660102  
C        C      0.363700000000     0.322500000000     0.171500000000     0.0660102  
C        C      0.390800000000     0.401500000000     0.200400000000     0.0660102  
C        C      0.432200000000     0.931500000000     0.183800000000     0.0660102  
C        C      0.402100000000     0.012700000000     0.152500000000     0.0660102  
C        C      0.320900000000     0.019300000000     0.126900000000     0.0660102  
C        C      0.292100000000     0.093400000000     0.099300000000     0.0660102  
C        C      0.349600000000     0.159500000000     0.095100000000     0.0660102  
C        C      0.434400000000     0.151000000000     0.125900000000     0.0660102  
C        C      0.456600000000     0.081100000000     0.150500000000     0.0660102  
C        C      0.310500000000     0.677400000000     0.317400000000     0.0660102  
C        C      0.228200000000     0.648500000000     0.346100000000     0.0660102  
C        C      0.159300000000     0.642200000000     0.289900000000     0.0660102  
C        C      0.082700000000     0.615700000000     0.316800000000     0.0660102  
C        C      0.076300000000     0.598900000000     0.402100000000     0.0660102  
C        C      0.142100000000     0.608000000000     0.455900000000     0.0660102  
C        C      0.218800000000     0.631100000000     0.429300000000     0.0660102  
C        C      0.179800000000     0.430000000000     0.551200000000     0.0660102  
C        C      0.147700000000     0.400000000000     0.465700000000     0.0660102  
C        C      0.063900000000     0.383400000000     0.448500000000     0.0660102  
C        C      0.034100000000     0.359200000000     0.368400000000     0.0660102  
C        C      0.090200000000     0.348800000000     0.308000000000     0.0660102  
C        C      0.171500000000     0.363700000000     0.322500000000     0.0660102  
C        C      0.200400000000     0.390800000000     0.401500000000     0.0660102  
C        C      0.183800000000     0.432200000000     0.931500000000     0.0660102  
C        C      0.152500000000     0.402100000000     0.012700000000     0.0660102  
C        C      0.126900000000     0.320900000000     0.019300000000     0.0660102  
C        C      0.099300000000     0.292100000000     0.093400000000     0.0660102  
C        C      0.095100000000     0.349600000000     0.159500000000     0.0660102  
C        C      0.125900000000     0.434400000000     0.151000000000     0.0660102  
C        C      0.150500000000     0.456600000000     0.081100000000     0.0660102  
C        C      0.317400000000     0.310500000000     0.677400000000     0.0660102  
C        C      0.346100000000     0.228200000000     0.648500000000     0.0660102  
C        C      0.289900000000     0.159300000000     0.642200000000     0.0660102  
C        C      0.316800000000     0.082700000000     0.615700000000     0.0660102  
C        C      0.402100000000     0.076300000000     0.598900000000     0.0660102  
C        C      0.455900000000     0.142100000000     0.608000000000     0.0660102  
C        C      0.429300000000     0.218800000000     0.631100000000     0.0660102  
C        C      0.820200000000     0.448800000000     0.570000000000     0.0660102  
C        C      0.852300000000     0.534300000000     0.600000000000     0.0660102  
C        C      0.936100000000     0.551500000000     0.616600000000     0.0660102  
C        C      0.965900000000     0.631600000000     0.640800000000     0.0660102  
C        C      0.909800000000     0.692000000000     0.651200000000     0.0660102  
C        C      0.828500000000     0.677500000000     0.636300000000     0.0660102  
C        C      0.799600000000     0.598500000000     0.609200000000     0.0660102  
C        C      0.816200000000     0.068500000000     0.567800000000     0.0660102  
C        C      0.847500000000     0.987300000000     0.597900000000     0.0660102  
C        C      0.873100000000     0.980700000000     0.679100000000     0.0660102  
C        C      0.900700000000     0.906600000000     0.707900000000     0.0660102  
C        C      0.904900000000     0.840500000000     0.650400000000     0.0660102  
C        C      0.874100000000     0.849000000000     0.565600000000     0.0660102  
C        C      0.849500000000     0.918900000000     0.543400000000     0.0660102  
C        C      0.682600000000     0.322600000000     0.689500000000     0.0660102  
C        C      0.653900000000     0.351500000000     0.771800000000     0.0660102  
C        C      0.710100000000     0.357800000000     0.840700000000     0.0660102  
C        C      0.683200000000     0.384300000000     0.917300000000     0.0660102  
C        C      0.597900000000     0.401100000000     0.923700000000     0.0660102  
C        C      0.544100000000     0.392000000000     0.857900000000     0.0660102  
C        C      0.570700000000     0.368900000000     0.781200000000     0.0660102  
C        C      0.448800000000     0.570000000000     0.820200000000     0.0660102  
C        C      0.534300000000     0.600000000000     0.852300000000     0.0660102  
C        C      0.551500000000     0.616600000000     0.936100000000     0.0660102  
C        C      0.631600000000     0.640800000000     0.965900000000     0.0660102  
C        C      0.692000000000     0.651200000000     0.909800000000     0.0660102  
C        C      0.677500000000     0.636300000000     0.828500000000     0.0660102  
C        C      0.598500000000     0.609200000000     0.799600000000     0.0660102  
C        C      0.068500000000     0.567800000000     0.816200000000     0.0660102  
C        C      0.987300000000     0.597900000000     0.847500000000     0.0660102  
C        C      0.980700000000     0.679100000000     0.873100000000     0.0660102  
C        C      0.906600000000     0.707900000000     0.900700000000     0.0660102  
C        C      0.840500000000     0.650400000000     0.904900000000     0.0660102  
C        C      0.849000000000     0.565600000000     0.874100000000     0.0660102  
C        C      0.918900000000     0.543400000000     0.849500000000     0.0660102  
C        C      0.322600000000     0.689500000000     0.682600000000     0.0660102  
C        C      0.351500000000     0.771800000000     0.653900000000     0.0660102  
C        C      0.357800000000     0.840700000000     0.710100000000     0.0660102  
C        C      0.384300000000     0.917300000000     0.683200000000     0.0660102  
C        C      0.401100000000     0.923700000000     0.597900000000     0.0660102  
C        C      0.392000000000     0.857900000000     0.544100000000     0.0660102  
C        C      0.368900000000     0.781200000000     0.570700000000     0.0660102  
C        C      0.570000000000     0.820200000000     0.448800000000     0.0660102  
C        C      0.600000000000     0.852300000000     0.534300000000     0.0660102  
C        C      0.616600000000     0.936100000000     0.551500000000     0.0660102  
C        C      0.640800000000     0.965900000000     0.631600000000     0.0660102  
C        C      0.651200000000     0.909800000000     0.692000000000     0.0660102  
C        C      0.636300000000     0.828500000000     0.677500000000     0.0660102  
C        C      0.609200000000     0.799600000000     0.598500000000     0.0660102  
C        C      0.567800000000     0.816200000000     0.068500000000     0.0660102  
C        C      0.597900000000     0.847500000000     0.987300000000     0.0660102  
C        C      0.679100000000     0.873100000000     0.980700000000     0.0660102  
C        C      0.707900000000     0.900700000000     0.906600000000     0.0660102  
C        C      0.650400000000     0.904900000000     0.840500000000     0.0660102  
C        C      0.565600000000     0.874100000000     0.849000000000     0.0660102  
C        C      0.543400000000     0.849500000000     0.918900000000     0.0660102  
C        C      0.689500000000     0.682600000000     0.322600000000     0.0660102  
C        C      0.771800000000     0.653900000000     0.351500000000     0.0660102  
C        C      0.840700000000     0.710100000000     0.357800000000     0.0660102  
C        C      0.917300000000     0.683200000000     0.384300000000     0.0660102  
C        C      0.923700000000     0.597900000000     0.401100000000     0.0660102  
C        C      0.857900000000     0.544100000000     0.392000000000     0.0660102  
C        C      0.781200000000     0.570700000000     0.368900000000     0.0660102  
C        C      0.683050000000     0.000000000000     0.316950000000     0.0660102  
C        C      0.316950000000     0.683050000000     0.000000000000     0.0660102  
C        C      0.000000000000     0.316950000000     0.683050000000     0.0660102  
O        O      0.556400000000     0.255600000000     0.452800000000    -0.653568   
O        O      0.608700000000     0.128300000000     0.428500000000    -0.653568   
O        O      0.230100000000     0.056700000000     0.321300000000    -0.653568   
O        O      0.931200000000     0.216900000000     0.504700000000    -0.653568   
O        O      0.869000000000     0.178500000000     0.380000000000    -0.653568   
O        O      0.678200000000     0.369900000000     0.372400000000    -0.653568   
O        O      0.699100000000     0.242000000000     0.313500000000    -0.653568   
O        O      0.735200000000     0.061600000000     0.315000000000    -0.653568   
O        O      0.452800000000     0.556400000000     0.255600000000    -0.653568   
O        O      0.428500000000     0.608700000000     0.128300000000    -0.653568   
O        O      0.321300000000     0.230100000000     0.056700000000    -0.653568   
O        O      0.504700000000     0.931200000000     0.216900000000    -0.653568   
O        O      0.380000000000     0.869000000000     0.178500000000    -0.653568   
O        O      0.372400000000     0.678200000000     0.369900000000    -0.653568   
O        O      0.313500000000     0.699100000000     0.242000000000    -0.653568   
O        O      0.315000000000     0.735200000000     0.061600000000    -0.653568   
O        O      0.255600000000     0.452800000000     0.556400000000    -0.653568   
O        O      0.128300000000     0.428500000000     0.608700000000    -0.653568   
O        O      0.056700000000     0.321300000000     0.230100000000    -0.653568   
O        O      0.216900000000     0.504700000000     0.931200000000    -0.653568   
O        O      0.178500000000     0.380000000000     0.869000000000    -0.653568   
O        O      0.369900000000     0.372400000000     0.678200000000    -0.653568   
O        O      0.242000000000     0.313500000000     0.699100000000    -0.653568   
O        O      0.061600000000     0.315000000000     0.735200000000    -0.653568   
O        O      0.744400000000     0.443600000000     0.547200000000    -0.653568   
O        O      0.871700000000     0.391300000000     0.571500000000    -0.653568   
O        O      0.943300000000     0.769900000000     0.678700000000    -0.653568   
O        O      0.783100000000     0.068800000000     0.495300000000    -0.653568   
O        O      0.821500000000     0.131000000000     0.620000000000    -0.653568   
O        O      0.630100000000     0.321800000000     0.627600000000    -0.653568   
O        O      0.758000000000     0.300900000000     0.686500000000    -0.653568   
O        O      0.938400000000     0.264800000000     0.685000000000    -0.653568   
O        O      0.443600000000     0.547200000000     0.744400000000    -0.653568   
O        O      0.391300000000     0.571500000000     0.871700000000    -0.653568   
O        O      0.769900000000     0.678700000000     0.943300000000    -0.653568   
O        O      0.068800000000     0.495300000000     0.783100000000    -0.653568   
O        O      0.131000000000     0.620000000000     0.821500000000    -0.653568   
O        O      0.321800000000     0.627600000000     0.630100000000    -0.653568   
O        O      0.300900000000     0.686500000000     0.758000000000    -0.653568   
O        O      0.264800000000     0.685000000000     0.938400000000    -0.653568   
O        O      0.547200000000     0.744400000000     0.443600000000    -0.653568   
O        O      0.571500000000     0.871700000000     0.391300000000    -0.653568   
O        O      0.678700000000     0.943300000000     0.769900000000    -0.653568   
O        O      0.495300000000     0.783100000000     0.068800000000    -0.653568   
O        O      0.620000000000     0.821500000000     0.131000000000    -0.653568   
O        O      0.627600000000     0.630100000000     0.321800000000    -0.653568   
O        O      0.686500000000     0.758000000000     0.300900000000    -0.653568   
O        O      0.685000000000     0.938400000000     0.264800000000    -0.653568   
O        O      0.748200000000     0.251800000000     0.500000000000    -0.653568   
O        O      0.500000000000     0.748200000000     0.251800000000    -0.653568   
O        O      0.251800000000     0.500000000000     0.748200000000    -0.653568   
O        O      0.569550000000     0.430450000000     0.000000000000    -0.653568   
O        O      0.000000000000     0.569550000000     0.430450000000    -0.653568   
O        O      0.430450000000     0.000000000000     0.569550000000    -0.653568   


