data_JAVTAC_original

_audit_creation_method RASPA-1.0
_audit_creation_date 2022-1-29
_audit_author_name 'Felipe Lopes de Oliveira <felipe.lopes.oliveira@ibm.com>'

_cell_length_a    8.4212
_cell_length_b    12.1315
_cell_length_c    12.1315
_cell_angle_alpha 66.4362
_cell_angle_beta  69.6913
_cell_angle_gamma 69.6913
_cell_volume      1033.65

_symmetry_cell_setting          triclinic
_symmetry_space_group_name_Hall 'P 1'
_symmetry_space_group_name_H-M  'P 1'
_symmetry_Int_Tables_number     1

_symmetry_equiv_pos_as_xyz 'x,y,z'

loop_
_atom_site_label
_atom_site_type_symbol
_atom_site_fract_x
_atom_site_fract_y
_atom_site_fract_z
_atom_site_charge
Al       Al     0.212700000000     0.836900000000     0.097100000000     15.4009    
Al       Al     0.802300000000     0.944400000000     0.844800000000     15.4009    
Al       Al     0.146700000000     0.163100000000     0.902900000000     15.4009    
Al       Al     0.591500000000     0.055600000000     0.155200000000     15.4009    
Al       Al     0.712700000000     0.597100000000     0.336900000000     15.4009    
Al       Al     0.302300000000     0.344800000000     0.444400000000     15.4009    
Al       Al     0.646700000000     0.402900000000     0.663100000000     15.4009    
Al       Al     0.091500000000     0.655200000000     0.555600000000     15.4009    
Al       Al     0.438000000000     0.897800000000     0.602200000000     15.4009    
Al       Al     0.938000000000     0.102200000000     0.397800000000     15.4009    
P        P      0.845000000000     0.810700000000     0.114300000000     4.91494    
P        P      0.433400000000     0.940600000000     0.839400000000     4.91494    
P        P      0.770000000000     0.189300000000     0.885700000000     4.91494    
P        P      0.213400000000     0.059400000000     0.160600000000     4.91494    
P        P      0.345000000000     0.614300000000     0.310700000000     4.91494    
P        P      0.933400000000     0.339400000000     0.440600000000     4.91494    
P        P      0.270000000000     0.385700000000     0.689300000000     4.91494    
P        P      0.713400000000     0.660600000000     0.559400000000     4.91494    
P        P      0.072700000000     0.886000000000     0.614000000000     4.91494    
P        P      0.572700000000     0.114000000000     0.386000000000     4.91494    
O        O      0.021500000000     0.812100000000     0.108500000000    -4.90428    
O        O      0.613300000000     0.939600000000     0.825600000000    -4.90428    
O        O      0.818900000000     0.685700000000     0.186700000000    -4.90428    
O        O      0.842600000000     0.839300000000     0.985100000000    -4.90428    
O        O      0.365300000000     0.847600000000     0.956200000000    -4.90428    
O        O      0.720500000000     0.908500000000     0.167300000000    -4.90428    
O        O      0.314500000000     0.066900000000     0.833300000000    -4.90428    
O        O      0.974100000000     0.892800000000     0.734400000000    -4.90428    
O        O      0.434200000000     0.914400000000     0.733200000000    -4.90428    
O        O      0.942100000000     0.187900000000     0.891500000000    -4.90428    
O        O      0.378500000000     0.060400000000     0.174400000000    -4.90428    
O        O      0.691300000000     0.314300000000     0.813300000000    -4.90428    
O        O      0.667000000000     0.160700000000     0.014900000000    -4.90428    
O        O      0.169100000000     0.152400000000     0.043800000000    -4.90428    
O        O      0.796300000000     0.091500000000     0.832700000000    -4.90428    
O        O      0.214700000000     0.933100000000     0.166700000000    -4.90428    
O        O      0.601300000000     0.107200000000     0.265600000000    -4.90428    
O        O      0.081800000000     0.085600000000     0.266800000000    -4.90428    
O        O      0.521500000000     0.608500000000     0.312100000000    -4.90428    
O        O      0.113300000000     0.325600000000     0.439600000000    -4.90428    
O        O      0.318900000000     0.686700000000     0.185700000000    -4.90428    
O        O      0.342600000000     0.485100000000     0.339300000000    -4.90428    
O        O      0.865300000000     0.456200000000     0.347600000000    -4.90428    
O        O      0.220500000000     0.667300000000     0.408500000000    -4.90428    
O        O      0.814500000000     0.333300000000     0.566900000000    -4.90428    
O        O      0.474100000000     0.234400000000     0.392800000000    -4.90428    
O        O      0.934200000000     0.233200000000     0.414400000000    -4.90428    
O        O      0.442100000000     0.391500000000     0.687900000000    -4.90428    
O        O      0.878500000000     0.674400000000     0.560400000000    -4.90428    
O        O      0.191300000000     0.313300000000     0.814300000000    -4.90428    
O        O      0.167000000000     0.514900000000     0.660700000000    -4.90428    
O        O      0.669100000000     0.543800000000     0.652400000000    -4.90428    
O        O      0.296300000000     0.332700000000     0.591500000000    -4.90428    
O        O      0.714700000000     0.666700000000     0.433100000000    -4.90428    
O        O      0.101300000000     0.765600000000     0.607200000000    -4.90428    
O        O      0.581800000000     0.766800000000     0.585600000000    -4.90428    
O        O      0.237000000000     0.902000000000     0.598000000000    -4.90428    
O        O      0.009000000000     0.982800000000     0.517200000000    -4.90428    
O        O      0.737000000000     0.098000000000     0.402000000000    -4.90428    
O        O      0.509000000000     0.017200000000     0.482800000000    -4.90428    
F        F      0.086500000000     0.000000000000     0.000000000000    -3.49375    
F        F      0.586500000000     0.500000000000     0.500000000000    -3.49375    


