data_KAMZUV_original

_audit_creation_method RASPA-1.0
_audit_creation_date 2022-1-28
_audit_author_name 'Felipe Lopes de Oliveira <felipe.lopes.oliveira@ibm.com>'

_cell_length_a    14.8153
_cell_length_b    14.8153
_cell_length_c    14.8153
_cell_angle_alpha 109.471
_cell_angle_beta  109.471
_cell_angle_gamma 109.471
_cell_volume      2503.3

_symmetry_cell_setting          triclinic
_symmetry_space_group_name_Hall 'P 1'
_symmetry_space_group_name_H-M  'P 1'
_symmetry_Int_Tables_number     1

_symmetry_equiv_pos_as_xyz 'x,y,z'

loop_
_atom_site_label
_atom_site_type_symbol
_atom_site_fract_x
_atom_site_fract_y
_atom_site_fract_z
_atom_site_charge
Zn       Zn     0.250000000000     0.750000000000     0.500000000000     0.333475   
Zn       Zn     0.750000000000     0.250000000000     0.500000000000     0.333475   
Zn       Zn     0.500000000000     0.750000000000     0.250000000000     0.333475   
Zn       Zn     0.500000000000     0.250000000000     0.750000000000     0.333475   
Zn       Zn     0.750000000000     0.500000000000     0.250000000000     0.333475   
Zn       Zn     0.250000000000     0.500000000000     0.750000000000     0.333475   
H        H      0.474880000000     0.719110000000     0.578270000000     0.0484691  
H        H      0.525120000000     0.103390000000     0.244220000000     0.0484691  
H        H      0.859170000000     0.280890000000     0.755780000000     0.0484691  
H        H      0.755780000000     0.859170000000     0.280890000000     0.0484691  
H        H      0.421730000000     0.140830000000     0.896610000000     0.0484691  
H        H      0.578270000000     0.474880000000     0.719110000000     0.0484691  
H        H      0.719110000000     0.578270000000     0.474880000000     0.0484691  
H        H      0.896610000000     0.421730000000     0.140830000000     0.0484691  
H        H      0.280890000000     0.755780000000     0.859170000000     0.0484691  
H        H      0.103390000000     0.244220000000     0.525120000000     0.0484691  
H        H      0.719110000000     0.474880000000     0.578270000000     0.0484691  
H        H      0.280890000000     0.859170000000     0.755780000000     0.0484691  
H        H      0.103390000000     0.525120000000     0.244220000000     0.0484691  
H        H      0.140830000000     0.421730000000     0.896610000000     0.0484691  
H        H      0.474880000000     0.578270000000     0.719110000000     0.0484691  
H        H      0.525120000000     0.244220000000     0.103390000000     0.0484691  
H        H      0.859170000000     0.755780000000     0.280890000000     0.0484691  
H        H      0.244220000000     0.103390000000     0.525120000000     0.0484691  
H        H      0.755780000000     0.280890000000     0.859170000000     0.0484691  
H        H      0.578270000000     0.719110000000     0.474880000000     0.0484691  
H        H      0.544940000000     0.034290000000     0.708580000000     0.0484691  
H        H      0.446720000000     0.911870000000     0.702710000000     0.0484691  
H        H      0.494120000000     0.053840000000     0.808940000000     0.0484691  
H        H      0.202700000000     0.667710000000     0.212320000000     0.0484691  
H        H      0.321840000000     0.790670000000     0.240530000000     0.0484691  
H        H      0.255240000000     0.807170000000     0.326920000000     0.0484691  
H        H      0.808840000000     0.052210000000     0.492830000000     0.0484691  
H        H      0.701390000000     0.911630000000     0.447400000000     0.0484691  
H        H      0.709990000000     0.036150000000     0.545550000000     0.0484691  
H        H      0.471080000000     0.156880000000     0.467910000000     0.0484691  
H        H      0.561110000000     0.291500000000     0.485790000000     0.0484691  
H        H      0.482030000000     0.286060000000     0.560510000000     0.0484691  
H        H      0.438890000000     0.730390000000     0.924690000000     0.0484691  
H        H      0.528920000000     0.685800000000     0.996830000000     0.0484691  
H        H      0.517970000000     0.804030000000     0.078480000000     0.0484691  
H        H      0.553290000000     0.465150000000     0.255990000000     0.0484691  
H        H      0.455060000000     0.489360000000     0.163640000000     0.0484691  
H        H      0.505870000000     0.559710000000     0.314810000000     0.0484691  
H        H      0.678160000000     0.468830000000     0.918690000000     0.0484691  
H        H      0.797300000000     0.465010000000     0.009630000000     0.0484691  
H        H      0.744760000000     0.551940000000     0.071680000000     0.0484691  
H        H      0.298610000000     0.210240000000     0.746000000000     0.0484691  
H        H      0.191160000000     0.243370000000     0.683990000000     0.0484691  
H        H      0.290010000000     0.326160000000     0.835560000000     0.0484691  
H        H      0.713020000000     0.273650000000     0.195670000000     0.0484691  
H        H      0.709390000000     0.194550000000     0.270420000000     0.0484691  
H        H      0.843150000000     0.311570000000     0.313690000000     0.0484691  
H        H      0.911650000000     0.690330000000     0.454810000000     0.0484691  
H        H      0.036040000000     0.806290000000     0.481050000000     0.0484691  
H        H      0.052310000000     0.723610000000     0.549920000000     0.0484691  
H        H      0.290610000000     0.485160000000     0.561030000000     0.0484691  
H        H      0.286980000000     0.560630000000     0.482650000000     0.0484691  
H        H      0.156850000000     0.468430000000     0.470540000000     0.0484691  
H        H      0.955570000000     0.442510000000     0.763520000000     0.0484691  
H        H      0.955570000000     0.503590000000     0.672200000000     0.0484691  
H        H      0.088850000000     0.539680000000     0.784500000000     0.0484691  
C        C      0.224470000000     0.943730000000     0.500420000000    -0.00976553 
C        C      0.443310000000     0.724050000000     0.499580000000    -0.00976553 
C        C      0.556690000000     0.056270000000     0.280740000000    -0.00976553 
C        C      0.775530000000     0.275950000000     0.719260000000    -0.00976553 
C        C      0.280740000000     0.556690000000     0.056270000000    -0.00976553 
C        C      0.719260000000     0.775530000000     0.275950000000    -0.00976553 
C        C      0.500420000000     0.224470000000     0.943730000000    -0.00976553 
C        C      0.499580000000     0.443310000000     0.724050000000    -0.00976553 
C        C      0.724050000000     0.499580000000     0.443310000000    -0.00976553 
C        C      0.943730000000     0.500420000000     0.224470000000    -0.00976553 
C        C      0.275950000000     0.719260000000     0.775530000000    -0.00976553 
C        C      0.056270000000     0.280740000000     0.556690000000    -0.00976553 
C        C      0.724050000000     0.443310000000     0.499580000000    -0.00976553 
C        C      0.943730000000     0.224470000000     0.500420000000    -0.00976553 
C        C      0.275950000000     0.775530000000     0.719260000000    -0.00976553 
C        C      0.056270000000     0.556690000000     0.280740000000    -0.00976553 
C        C      0.224470000000     0.500420000000     0.943730000000    -0.00976553 
C        C      0.443310000000     0.499580000000     0.724050000000    -0.00976553 
C        C      0.556690000000     0.280740000000     0.056270000000    -0.00976553 
C        C      0.775530000000     0.719260000000     0.275950000000    -0.00976553 
C        C      0.280740000000     0.056270000000     0.556690000000    -0.00976553 
C        C      0.719260000000     0.275950000000     0.775530000000    -0.00976553 
C        C      0.500420000000     0.943730000000     0.224470000000    -0.00976553 
C        C      0.499580000000     0.724050000000     0.443310000000    -0.00976553 
C        C      0.375460000000     0.000000000000     0.641900000000    -0.00976553 
C        C      0.471080000000     0.000000000000     0.720260000000    -0.00976553 
C        C      0.358100000000     0.733560000000     0.358100000000    -0.00976553 
C        C      0.279740000000     0.750820000000     0.279740000000    -0.00976553 
C        C      0.641900000000     0.000000000000     0.375460000000    -0.00976553 
C        C      0.720260000000     0.000000000000     0.471080000000    -0.00976553 
C        C      0.624540000000     0.266440000000     0.624540000000    -0.00976553 
C        C      0.528920000000     0.249180000000     0.528920000000    -0.00976553 
C        C      0.375460000000     0.641900000000     0.000000000000    -0.00976553 
C        C      0.471080000000     0.720260000000     0.000000000000    -0.00976553 
C        C      0.624540000000     0.624540000000     0.266440000000    -0.00976553 
C        C      0.528920000000     0.528920000000     0.249180000000    -0.00976553 
C        C      0.641900000000     0.375460000000     0.000000000000    -0.00976553 
C        C      0.720260000000     0.471080000000     0.000000000000    -0.00976553 
C        C      0.358100000000     0.358100000000     0.733560000000    -0.00976553 
C        C      0.279740000000     0.279740000000     0.750820000000    -0.00976553 
C        C      0.733560000000     0.358100000000     0.358100000000    -0.00976553 
C        C      0.750820000000     0.279740000000     0.279740000000    -0.00976553 
C        C      0.000000000000     0.641900000000     0.375460000000    -0.00976553 
C        C      0.000000000000     0.720260000000     0.471080000000    -0.00976553 
C        C      0.266440000000     0.624540000000     0.624540000000    -0.00976553 
C        C      0.249180000000     0.528920000000     0.528920000000    -0.00976553 
C        C      0.000000000000     0.375460000000     0.641900000000    -0.00976553 
C        C      0.000000000000     0.471080000000     0.720260000000    -0.00976553 
N        N      0.285710000000     0.907290000000     0.555120000000    -0.176932   
N        N      0.352170000000     0.730590000000     0.444880000000    -0.176932   
N        N      0.647830000000     0.092710000000     0.378420000000    -0.176932   
N        N      0.714290000000     0.269410000000     0.621580000000    -0.176932   
N        N      0.378420000000     0.647830000000     0.092710000000    -0.176932   
N        N      0.621580000000     0.714290000000     0.269410000000    -0.176932   
N        N      0.555120000000     0.285710000000     0.907290000000    -0.176932   
N        N      0.444880000000     0.352170000000     0.730590000000    -0.176932   
N        N      0.730590000000     0.444880000000     0.352170000000    -0.176932   
N        N      0.907290000000     0.555120000000     0.285710000000    -0.176932   
N        N      0.269410000000     0.621580000000     0.714290000000    -0.176932   
N        N      0.092710000000     0.378420000000     0.647830000000    -0.176932   
N        N      0.730590000000     0.352170000000     0.444880000000    -0.176932   
N        N      0.907290000000     0.285710000000     0.555120000000    -0.176932   
N        N      0.269410000000     0.714290000000     0.621580000000    -0.176932   
N        N      0.092710000000     0.647830000000     0.378420000000    -0.176932   
N        N      0.285710000000     0.555120000000     0.907290000000    -0.176932   
N        N      0.352170000000     0.444880000000     0.730590000000    -0.176932   
N        N      0.647830000000     0.378420000000     0.092710000000    -0.176932   
N        N      0.714290000000     0.621580000000     0.269410000000    -0.176932   
N        N      0.378420000000     0.092710000000     0.647830000000    -0.176932   
N        N      0.621580000000     0.269410000000     0.714290000000    -0.176932   
N        N      0.555120000000     0.907290000000     0.285710000000    -0.176932   
N        N      0.444880000000     0.730590000000     0.352170000000    -0.176932   


