data_KANCIN_original

_audit_creation_method RASPA-1.0
_audit_creation_date 2022-1-28
_audit_author_name 'Felipe Lopes de Oliveira <felipe.lopes.oliveira@ibm.com>'

_cell_length_a    10.8537
_cell_length_b    10.8537
_cell_length_c    18.34
_cell_angle_alpha 90
_cell_angle_beta  90
_cell_angle_gamma 116.48
_cell_volume      1933.85

_symmetry_cell_setting          triclinic
_symmetry_space_group_name_Hall 'P 1'
_symmetry_space_group_name_H-M  'P 1'
_symmetry_Int_Tables_number     1

_symmetry_equiv_pos_as_xyz 'x,y,z'

loop_
_atom_site_label
_atom_site_type_symbol
_atom_site_fract_x
_atom_site_fract_y
_atom_site_fract_z
_atom_site_charge
Zn       Zn     0.668770000000     0.331230000000     0.750000000000     0.463281   
Zn       Zn     0.831230000000     0.168770000000     0.750000000000     0.463281   
Zn       Zn     0.331230000000     0.668770000000     0.250000000000     0.463281   
Zn       Zn     0.168770000000     0.831230000000     0.250000000000     0.463281   
H        H      0.383000000000     0.094200000000     0.932800000000     0.0530864  
H        H      0.693700000000     0.990900000000     0.950700000000     0.0530864  
H        H      0.419100000000     0.323700000000     0.821600000000     0.0530864  
H        H      0.281300000000     0.439700000000     0.818200000000     0.0530864  
H        H      0.135000000000     0.508200000000     0.751900000000     0.0530864  
H        H      0.117000000000     0.405800000000     0.932800000000     0.0530864  
H        H      0.806300000000     0.509100000000     0.950700000000     0.0530864  
H        H      0.080900000000     0.176300000000     0.821600000000     0.0530864  
H        H      0.218700000000     0.060300000000     0.818200000000     0.0530864  
H        H      0.365000000000     0.991800000000     0.751900000000     0.0530864  
H        H      0.905800000000     0.617000000000     0.567200000000     0.0530864  
H        H      0.009100000000     0.306300000000     0.549300000000     0.0530864  
H        H      0.676300000000     0.580900000000     0.678400000000     0.0530864  
H        H      0.560300000000     0.718700000000     0.681800000000     0.0530864  
H        H      0.491800000000     0.865000000000     0.748100000000     0.0530864  
H        H      0.594200000000     0.883000000000     0.567200000000     0.0530864  
H        H      0.490900000000     0.193700000000     0.549300000000     0.0530864  
H        H      0.823700000000     0.919100000000     0.678400000000     0.0530864  
H        H      0.939700000000     0.781300000000     0.681800000000     0.0530864  
H        H      0.008200000000     0.635000000000     0.748100000000     0.0530864  
H        H      0.617000000000     0.905800000000     0.067200000000     0.0530864  
H        H      0.306300000000     0.009100000000     0.049300000000     0.0530864  
H        H      0.580900000000     0.676300000000     0.178400000000     0.0530864  
H        H      0.718700000000     0.560300000000     0.181800000000     0.0530864  
H        H      0.865000000000     0.491800000000     0.248100000000     0.0530864  
H        H      0.883000000000     0.594200000000     0.067200000000     0.0530864  
H        H      0.193700000000     0.490900000000     0.049300000000     0.0530864  
H        H      0.919100000000     0.823700000000     0.178400000000     0.0530864  
H        H      0.781300000000     0.939700000000     0.181800000000     0.0530864  
H        H      0.635000000000     0.008200000000     0.248100000000     0.0530864  
H        H      0.094200000000     0.383000000000     0.432800000000     0.0530864  
H        H      0.990900000000     0.693700000000     0.450700000000     0.0530864  
H        H      0.323700000000     0.419100000000     0.321600000000     0.0530864  
H        H      0.439700000000     0.281300000000     0.318200000000     0.0530864  
H        H      0.508200000000     0.135000000000     0.251900000000     0.0530864  
H        H      0.405800000000     0.117000000000     0.432800000000     0.0530864  
H        H      0.509100000000     0.806300000000     0.450700000000     0.0530864  
H        H      0.176300000000     0.080900000000     0.321600000000     0.0530864  
H        H      0.060300000000     0.218700000000     0.318200000000     0.0530864  
H        H      0.991800000000     0.365000000000     0.251900000000     0.0530864  
C        C      0.600700000000     0.113100000000     0.857000000000     0.0204555  
C        C      0.546600000000     0.053200000000     0.930400000000     0.0204555  
C        C      0.432500000000     0.055700000000     0.960400000000     0.0204555  
C        C      0.614100000000     0.995700000000     0.970500000000     0.0204555  
C        C      0.446000000000     0.403000000000     0.790800000000     0.0204555  
C        C      0.365000000000     0.474000000000     0.790500000000     0.0204555  
C        C      0.182100000000     0.606900000000     0.750600000000     0.0204555  
C        C      0.899300000000     0.386900000000     0.857000000000     0.0204555  
C        C      0.953400000000     0.446800000000     0.930400000000     0.0204555  
C        C      0.067500000000     0.444300000000     0.960400000000     0.0204555  
C        C      0.885900000000     0.504300000000     0.970500000000     0.0204555  
C        C      0.054000000000     0.097000000000     0.790800000000     0.0204555  
C        C      0.135000000000     0.026000000000     0.790500000000     0.0204555  
C        C      0.317900000000     0.893100000000     0.750600000000     0.0204555  
C        C      0.886900000000     0.399300000000     0.643000000000     0.0204555  
C        C      0.946800000000     0.453400000000     0.569600000000     0.0204555  
C        C      0.944300000000     0.567500000000     0.539600000000     0.0204555  
C        C      0.004300000000     0.385900000000     0.529500000000     0.0204555  
C        C      0.597000000000     0.554000000000     0.709200000000     0.0204555  
C        C      0.526000000000     0.635000000000     0.709500000000     0.0204555  
C        C      0.393100000000     0.817900000000     0.749400000000     0.0204555  
C        C      0.613100000000     0.100700000000     0.643000000000     0.0204555  
C        C      0.553200000000     0.046600000000     0.569600000000     0.0204555  
C        C      0.555700000000     0.932500000000     0.539600000000     0.0204555  
C        C      0.495700000000     0.114100000000     0.529500000000     0.0204555  
C        C      0.903000000000     0.946000000000     0.709200000000     0.0204555  
C        C      0.974000000000     0.865000000000     0.709500000000     0.0204555  
C        C      0.106900000000     0.682100000000     0.749400000000     0.0204555  
C        C      0.399300000000     0.886900000000     0.143000000000     0.0204555  
C        C      0.453400000000     0.946800000000     0.069600000000     0.0204555  
C        C      0.567500000000     0.944300000000     0.039600000000     0.0204555  
C        C      0.385900000000     0.004300000000     0.029500000000     0.0204555  
C        C      0.554000000000     0.597000000000     0.209200000000     0.0204555  
C        C      0.635000000000     0.526000000000     0.209500000000     0.0204555  
C        C      0.817900000000     0.393100000000     0.249400000000     0.0204555  
C        C      0.100700000000     0.613100000000     0.143000000000     0.0204555  
C        C      0.046600000000     0.553200000000     0.069600000000     0.0204555  
C        C      0.932500000000     0.555700000000     0.039600000000     0.0204555  
C        C      0.114100000000     0.495700000000     0.029500000000     0.0204555  
C        C      0.946000000000     0.903000000000     0.209200000000     0.0204555  
C        C      0.865000000000     0.974000000000     0.209500000000     0.0204555  
C        C      0.682100000000     0.106900000000     0.249400000000     0.0204555  
C        C      0.113100000000     0.600700000000     0.357000000000     0.0204555  
C        C      0.053200000000     0.546600000000     0.430400000000     0.0204555  
C        C      0.055700000000     0.432500000000     0.460400000000     0.0204555  
C        C      0.995700000000     0.614100000000     0.470500000000     0.0204555  
C        C      0.403000000000     0.446000000000     0.290800000000     0.0204555  
C        C      0.474000000000     0.365000000000     0.290500000000     0.0204555  
C        C      0.606900000000     0.182100000000     0.250600000000     0.0204555  
C        C      0.386900000000     0.899300000000     0.357000000000     0.0204555  
C        C      0.446800000000     0.953400000000     0.430400000000     0.0204555  
C        C      0.444300000000     0.067500000000     0.460400000000     0.0204555  
C        C      0.504300000000     0.885900000000     0.470500000000     0.0204555  
C        C      0.097000000000     0.054000000000     0.290800000000     0.0204555  
C        C      0.026000000000     0.135000000000     0.290500000000     0.0204555  
C        C      0.893100000000     0.317900000000     0.250600000000     0.0204555  
C        C      0.406100000000     0.593900000000     0.750000000000     0.0204555  
C        C      0.326000000000     0.674000000000     0.750000000000     0.0204555  
C        C      0.093900000000     0.906100000000     0.750000000000     0.0204555  
C        C      0.174000000000     0.826000000000     0.750000000000     0.0204555  
C        C      0.593900000000     0.406100000000     0.250000000000     0.0204555  
C        C      0.674000000000     0.326000000000     0.250000000000     0.0204555  
C        C      0.906100000000     0.093900000000     0.250000000000     0.0204555  
C        C      0.826000000000     0.174000000000     0.250000000000     0.0204555  
N        N      0.558800000000     0.441200000000     0.750000000000    -0.159182   
N        N      0.941200000000     0.058800000000     0.750000000000    -0.159182   
N        N      0.441200000000     0.558800000000     0.250000000000    -0.159182   
N        N      0.058800000000     0.941200000000     0.250000000000    -0.159182   
O        O      0.552020000000     0.186380000000     0.826910000000    -0.290563   
O        O      0.693920000000     0.085680000000     0.830860000000    -0.290563   
O        O      0.947980000000     0.313620000000     0.826910000000    -0.290563   
O        O      0.806080000000     0.414320000000     0.830860000000    -0.290563   
O        O      0.813620000000     0.447980000000     0.673090000000    -0.290563   
O        O      0.914320000000     0.306080000000     0.669140000000    -0.290563   
O        O      0.686380000000     0.052020000000     0.673090000000    -0.290563   
O        O      0.585680000000     0.193920000000     0.669140000000    -0.290563   
O        O      0.447980000000     0.813620000000     0.173090000000    -0.290563   
O        O      0.306080000000     0.914320000000     0.169140000000    -0.290563   
O        O      0.052020000000     0.686380000000     0.173090000000    -0.290563   
O        O      0.193920000000     0.585680000000     0.169140000000    -0.290563   
O        O      0.186380000000     0.552020000000     0.326910000000    -0.290563   
O        O      0.085680000000     0.693920000000     0.330860000000    -0.290563   
O        O      0.313620000000     0.947980000000     0.326910000000    -0.290563   
O        O      0.414320000000     0.806080000000     0.330860000000    -0.290563   


