data_KANDEK_original

_audit_creation_method RASPA-1.0
_audit_creation_date 2022-1-29
_audit_author_name 'Felipe Lopes de Oliveira <felipe.lopes.oliveira@ibm.com>'

_cell_length_a    10.865
_cell_length_b    10.96
_cell_length_c    15.272
_cell_angle_alpha 79.28
_cell_angle_beta  83.75
_cell_angle_gamma 84.5
_cell_volume      1770.91

_symmetry_cell_setting          triclinic
_symmetry_space_group_name_Hall 'P 1'
_symmetry_space_group_name_H-M  'P 1'
_symmetry_Int_Tables_number     1

_symmetry_equiv_pos_as_xyz 'x,y,z'

loop_
_atom_site_label
_atom_site_type_symbol
_atom_site_fract_x
_atom_site_fract_y
_atom_site_fract_z
_atom_site_charge
Zn       Zn     0.953720000000     0.841710000000     0.696360000000     0.461783   
Zn       Zn     0.945380000000     0.787650000000     0.897030000000     0.461783   
Zn       Zn     0.046280000000     0.158290000000     0.303640000000     0.461783   
Zn       Zn     0.054620000000     0.212350000000     0.102970000000     0.461783   
H        H      0.873500000000     0.393900000000     0.924700000000     0.069464   
H        H      0.872800000000     0.180500000000     0.923500000000     0.069464   
H        H      0.023300000000     0.239600000000     0.665800000000     0.069464   
H        H      0.025300000000     0.449100000000     0.670400000000     0.069464   
H        H      0.566900000000     0.792000000000     0.919100000000     0.069464   
H        H      0.353400000000     0.770200000000     0.944200000000     0.069464   
H        H      0.333300000000     0.821100000000     0.675900000000     0.069464   
H        H      0.544300000000     0.843900000000     0.651300000000     0.069464   
H        H      0.790700000000     0.610400000000     0.027800000000     0.069464   
H        H      0.644000000000     0.611900000000     0.148500000000     0.069464   
H        H      0.729700000000     0.959300000000     0.157400000000     0.069464   
H        H      0.873300000000     0.946700000000     0.037000000000     0.069464   
H        H      0.431800000000     0.730900000000     0.179600000000     0.069464   
H        H      0.269000000000     0.751200000000     0.289200000000     0.069464   
H        H      0.179400000000     0.683300000000     0.432300000000     0.069464   
H        H      0.020600000000     0.697100000000     0.544400000000     0.069464   
H        H      0.125400000000     0.012300000000     0.581700000000     0.069464   
H        H      0.294600000000     0.002600000000     0.475700000000     0.069464   
H        H      0.126500000000     0.606100000000     0.075300000000     0.069464   
H        H      0.127200000000     0.819500000000     0.076500000000     0.069464   
H        H      0.976700000000     0.760400000000     0.334200000000     0.069464   
H        H      0.974700000000     0.550900000000     0.329600000000     0.069464   
H        H      0.433100000000     0.208000000000     0.080900000000     0.069464   
H        H      0.646600000000     0.229800000000     0.055800000000     0.069464   
H        H      0.666700000000     0.178900000000     0.324100000000     0.069464   
H        H      0.455700000000     0.156100000000     0.348700000000     0.069464   
H        H      0.209300000000     0.389600000000     0.972200000000     0.069464   
H        H      0.356000000000     0.388100000000     0.851500000000     0.069464   
H        H      0.270300000000     0.040700000000     0.842600000000     0.069464   
H        H      0.126700000000     0.053300000000     0.963000000000     0.069464   
H        H      0.568200000000     0.269100000000     0.820400000000     0.069464   
H        H      0.731000000000     0.248800000000     0.710800000000     0.069464   
H        H      0.820600000000     0.316700000000     0.567700000000     0.069464   
H        H      0.979400000000     0.302900000000     0.455600000000     0.069464   
H        H      0.874600000000     0.987700000000     0.418300000000     0.069464   
H        H      0.705400000000     0.997400000000     0.524300000000     0.069464   
C        C      0.947100000000     0.443200000000     0.797700000000     0.0368839  
C        C      0.903300000000     0.362800000000     0.873100000000     0.0368839  
C        C      0.903300000000     0.233800000000     0.872700000000     0.0368839  
C        C      0.949500000000     0.186700000000     0.795200000000     0.0368839  
C        C      0.994100000000     0.269500000000     0.717900000000     0.0368839  
C        C      0.993900000000     0.395400000000     0.720700000000     0.0368839  
C        C      0.947900000000     0.579600000000     0.799000000000     0.0368839  
C        C      0.951300000000     0.052500000000     0.791600000000     0.0368839  
C        C      0.578800000000     0.819500000000     0.780900000000     0.0368839  
C        C      0.519800000000     0.797800000000     0.870900000000     0.0368839  
C        C      0.391700000000     0.785500000000     0.886200000000     0.0368839  
C        C      0.321100000000     0.796700000000     0.811300000000     0.0368839  
C        C      0.379700000000     0.816400000000     0.724300000000     0.0368839  
C        C      0.506900000000     0.829000000000     0.709600000000     0.0368839  
C        C      0.717100000000     0.832500000000     0.767700000000     0.0368839  
C        C      0.183100000000     0.791500000000     0.826600000000     0.0368839  
C        C      0.777300000000     0.681100000000     0.054100000000     0.0368839  
C        C      0.688400000000     0.681300000000     0.126500000000     0.0368839  
C        C      0.667000000000     0.787200000000     0.165700000000     0.0368839  
C        C      0.739700000000     0.888000000000     0.131700000000     0.0368839  
C        C      0.826100000000     0.879400000000     0.059400000000     0.0368839  
C        C      0.565000000000     0.796800000000     0.238500000000     0.0368839  
C        C      0.445400000000     0.762600000000     0.229800000000     0.0368839  
C        C      0.346500000000     0.775900000000     0.296000000000     0.0368839  
C        C      0.362900000000     0.826400000000     0.373200000000     0.0368839  
C        C      0.484200000000     0.858100000000     0.380900000000     0.0368839  
C        C      0.580000000000     0.843200000000     0.315900000000     0.0368839  
C        C      0.259500000000     0.839300000000     0.443100000000     0.0368839  
C        C      0.172700000000     0.749300000000     0.463400000000     0.0368839  
C        C      0.076200000000     0.758800000000     0.530600000000     0.0368839  
C        C      0.138600000000     0.943400000000     0.553400000000     0.0368839  
C        C      0.240700000000     0.939300000000     0.488200000000     0.0368839  
C        C      0.052900000000     0.556800000000     0.202300000000     0.0368839  
C        C      0.096700000000     0.637200000000     0.126900000000     0.0368839  
C        C      0.096700000000     0.766200000000     0.127300000000     0.0368839  
C        C      0.050500000000     0.813300000000     0.204800000000     0.0368839  
C        C      0.005900000000     0.730500000000     0.282100000000     0.0368839  
C        C      0.006100000000     0.604600000000     0.279300000000     0.0368839  
C        C      0.052100000000     0.420400000000     0.201000000000     0.0368839  
C        C      0.048700000000     0.947500000000     0.208400000000     0.0368839  
C        C      0.421200000000     0.180500000000     0.219100000000     0.0368839  
C        C      0.480200000000     0.202200000000     0.129100000000     0.0368839  
C        C      0.608300000000     0.214500000000     0.113800000000     0.0368839  
C        C      0.678900000000     0.203300000000     0.188700000000     0.0368839  
C        C      0.620300000000     0.183600000000     0.275700000000     0.0368839  
C        C      0.493100000000     0.171000000000     0.290400000000     0.0368839  
C        C      0.282900000000     0.167500000000     0.232300000000     0.0368839  
C        C      0.816900000000     0.208500000000     0.173400000000     0.0368839  
C        C      0.222700000000     0.318900000000     0.945900000000     0.0368839  
C        C      0.311600000000     0.318700000000     0.873500000000     0.0368839  
C        C      0.333000000000     0.212800000000     0.834300000000     0.0368839  
C        C      0.260300000000     0.112000000000     0.868300000000     0.0368839  
C        C      0.173900000000     0.120600000000     0.940600000000     0.0368839  
C        C      0.435000000000     0.203200000000     0.761500000000     0.0368839  
C        C      0.554600000000     0.237400000000     0.770200000000     0.0368839  
C        C      0.653500000000     0.224100000000     0.704000000000     0.0368839  
C        C      0.637100000000     0.173600000000     0.626800000000     0.0368839  
C        C      0.515800000000     0.141900000000     0.619100000000     0.0368839  
C        C      0.420000000000     0.156800000000     0.684100000000     0.0368839  
C        C      0.740500000000     0.160700000000     0.556900000000     0.0368839  
C        C      0.827300000000     0.250700000000     0.536600000000     0.0368839  
C        C      0.923800000000     0.241200000000     0.469400000000     0.0368839  
C        C      0.861400000000     0.056600000000     0.446600000000     0.0368839  
C        C      0.759300000000     0.060700000000     0.511800000000     0.0368839  
N        N      0.845300000000     0.779100000000     0.019800000000    -0.167049   
N        N      0.060500000000     0.854900000000     0.576400000000    -0.167049   
N        N      0.154700000000     0.220900000000     0.980200000000    -0.167049   
N        N      0.939500000000     0.145100000000     0.423600000000    -0.167049   
O        O      0.952800000000     0.651800000000     0.723300000000    -0.276133   
O        O      0.945100000000     0.611600000000     0.875200000000    -0.276133   
O        O      0.952200000000     0.977900000000     0.868200000000    -0.276133   
O        O      0.953500000000     0.019800000000     0.716500000000    -0.276133   
O        O      0.767100000000     0.854600000000     0.686900000000    -0.276133   
O        O      0.774900000000     0.821400000000     0.835900000000    -0.276133   
O        O      0.132200000000     0.771900000000     0.908200000000    -0.276133   
O        O      0.125100000000     0.808200000000     0.759800000000    -0.276133   
O        O      0.047200000000     0.348200000000     0.276700000000    -0.276133   
O        O      0.054900000000     0.388400000000     0.124800000000    -0.276133   
O        O      0.047800000000     0.022100000000     0.131800000000    -0.276133   
O        O      0.046500000000     0.980200000000     0.283500000000    -0.276133   
O        O      0.232900000000     0.145400000000     0.313100000000    -0.276133   
O        O      0.225100000000     0.178600000000     0.164100000000    -0.276133   
O        O      0.867800000000     0.228100000000     0.091800000000    -0.276133   
O        O      0.874900000000     0.191800000000     0.240200000000    -0.276133   
F        F      0.507300000000     0.899200000000     0.454800000000    -0.405522   
F        F      0.694500000000     0.875500000000     0.329000000000    -0.405522   
F        F      0.492700000000     0.100800000000     0.545200000000    -0.405522   
F        F      0.305500000000     0.124500000000     0.671000000000    -0.405522   


