data_KANDIO_original

_audit_creation_method RASPA-1.0
_audit_creation_date 2022-1-28
_audit_author_name 'Felipe Lopes de Oliveira <felipe.lopes.oliveira@ibm.com>'

_cell_length_a    10.885
_cell_length_b    10.93
_cell_length_c    18.518
_cell_angle_alpha 87.42
_cell_angle_beta  84.99
_cell_angle_gamma 70.57
_cell_volume      2069.43

_symmetry_cell_setting          triclinic
_symmetry_space_group_name_Hall 'P 1'
_symmetry_space_group_name_H-M  'P 1'
_symmetry_Int_Tables_number     1

_symmetry_equiv_pos_as_xyz 'x,y,z'

loop_
_atom_site_label
_atom_site_type_symbol
_atom_site_fract_x
_atom_site_fract_y
_atom_site_fract_z
_atom_site_charge
Zn       Zn     0.343320000000     0.241760000000     0.576920000000     0.46469    
Zn       Zn     0.318580000000     0.238090000000     0.739630000000     0.46469    
Zn       Zn     0.656680000000     0.758240000000     0.423080000000     0.46469    
Zn       Zn     0.681420000000     0.761910000000     0.260370000000     0.46469    
H        H      0.760100000000     0.210300000000     0.551700000000     0.0688516  
H        H      0.959500000000     0.243500000000     0.557300000000     0.0688516  
H        H      0.909200000000     0.249800000000     0.774600000000     0.0688516  
H        H      0.711500000000     0.214100000000     0.769100000000     0.0688516  
H        H      0.360600000000     0.633200000000     0.544900000000     0.0688516  
H        H      0.366500000000     0.843500000000     0.546000000000     0.0688516  
H        H      0.321500000000     0.839400000000     0.764900000000     0.0688516  
H        H      0.309000000000     0.628800000000     0.763000000000     0.0688516  
H        H      0.350100000000     0.069500000000     0.453800000000     0.0688516  
H        H      0.338600000000     0.075400000000     0.331800000000     0.0688516  
H        H      0.304400000000     0.454700000000     0.330600000000     0.0688516  
H        H      0.316700000000     0.437600000000     0.453700000000     0.0688516  
H        H      0.447900000000     0.087000000000     0.217800000000     0.0688516  
H        H      0.442100000000     0.084600000000     0.094500000000     0.0688516  
H        H      0.506000000000     0.161400000000     0.980900000000     0.0688516  
H        H      0.501800000000     0.153000000000     0.856800000000     0.0688516  
H        H      0.128900000000     0.346900000000     0.866000000000     0.0688516  
H        H      0.121900000000     0.363600000000     0.989900000000     0.0688516  
H        H      0.239900000000     0.789700000000     0.448300000000     0.0688516  
H        H      0.040500000000     0.756500000000     0.442700000000     0.0688516  
H        H      0.090800000000     0.750200000000     0.225400000000     0.0688516  
H        H      0.288500000000     0.785900000000     0.230900000000     0.0688516  
H        H      0.639400000000     0.366800000000     0.455100000000     0.0688516  
H        H      0.633500000000     0.156500000000     0.454000000000     0.0688516  
H        H      0.678500000000     0.160600000000     0.235100000000     0.0688516  
H        H      0.691000000000     0.371200000000     0.237000000000     0.0688516  
H        H      0.649900000000     0.930500000000     0.546200000000     0.0688516  
H        H      0.661400000000     0.924600000000     0.668200000000     0.0688516  
H        H      0.695600000000     0.545300000000     0.669400000000     0.0688516  
H        H      0.683300000000     0.562400000000     0.546300000000     0.0688516  
H        H      0.552100000000     0.913000000000     0.782200000000     0.0688516  
H        H      0.557900000000     0.915400000000     0.905500000000     0.0688516  
H        H      0.494000000000     0.838600000000     0.019100000000     0.0688516  
H        H      0.498200000000     0.847000000000     0.143200000000     0.0688516  
H        H      0.871100000000     0.653100000000     0.134000000000     0.0688516  
H        H      0.878100000000     0.636400000000     0.010100000000     0.0688516  
C        C      0.713800000000     0.212400000000     0.659900000000     0.0383493  
C        C      0.789100000000     0.219000000000     0.596300000000     0.0383493  
C        C      0.909000000000     0.238800000000     0.599800000000     0.0383493  
C        C      0.953200000000     0.251400000000     0.665800000000     0.0383493  
C        C      0.879400000000     0.242300000000     0.730000000000     0.0383493  
C        C      0.760500000000     0.221700000000     0.726500000000     0.0383493  
C        C      0.580300000000     0.198700000000     0.657000000000     0.0383493  
C        C      0.084600000000     0.270800000000     0.669100000000     0.0383493  
C        C      0.332000000000     0.612500000000     0.654300000000     0.0383493  
C        C      0.351200000000     0.675300000000     0.588700000000     0.0383493  
C        C      0.355800000000     0.800900000000     0.589400000000     0.0383493  
C        C      0.344700000000     0.863400000000     0.655000000000     0.0383493  
C        C      0.327900000000     0.798800000000     0.721000000000     0.0383493  
C        C      0.321000000000     0.671900000000     0.719900000000     0.0383493  
C        C      0.320900000000     0.477400000000     0.653600000000     0.0383493  
C        C      0.349200000000     0.000500000000     0.655600000000     0.0383493  
C        C      0.340700000000     0.147500000000     0.428800000000     0.0383493  
C        C      0.334700000000     0.150200000000     0.355300000000     0.0383493  
C        C      0.322600000000     0.264800000000     0.315100000000     0.0383493  
C        C      0.314300000000     0.375600000000     0.354400000000     0.0383493  
C        C      0.321000000000     0.364500000000     0.428400000000     0.0383493  
C        C      0.320100000000     0.267300000000     0.234900000000     0.0383493  
C        C      0.394600000000     0.159800000000     0.194300000000     0.0383493  
C        C      0.391400000000     0.158400000000     0.119600000000     0.0383493  
C        C      0.314100000000     0.265300000000     0.081000000000     0.0383493  
C        C      0.240400000000     0.372900000000     0.121600000000     0.0383493  
C        C      0.244900000000     0.375900000000     0.196100000000     0.0383493  
C        C      0.311000000000     0.259900000000     0.001100000000     0.0383493  
C        C      0.427900000000     0.198300000000     0.959100000000     0.0383493  
C        C      0.424100000000     0.193700000000     0.884200000000     0.0383493  
C        C      0.204900000000     0.308000000000     0.889400000000     0.0383493  
C        C      0.200000000000     0.317900000000     0.964400000000     0.0383493  
C        C      0.286200000000     0.787600000000     0.340100000000     0.0383493  
C        C      0.210900000000     0.781000000000     0.403700000000     0.0383493  
C        C      0.091000000000     0.761200000000     0.400200000000     0.0383493  
C        C      0.046800000000     0.748600000000     0.334200000000     0.0383493  
C        C      0.120600000000     0.757700000000     0.270000000000     0.0383493  
C        C      0.239500000000     0.778300000000     0.273500000000     0.0383493  
C        C      0.419700000000     0.801300000000     0.343000000000     0.0383493  
C        C      0.915400000000     0.729200000000     0.330900000000     0.0383493  
C        C      0.668000000000     0.387500000000     0.345700000000     0.0383493  
C        C      0.648800000000     0.324700000000     0.411300000000     0.0383493  
C        C      0.644200000000     0.199100000000     0.410600000000     0.0383493  
C        C      0.655300000000     0.136600000000     0.345000000000     0.0383493  
C        C      0.672100000000     0.201200000000     0.279000000000     0.0383493  
C        C      0.679000000000     0.328100000000     0.280100000000     0.0383493  
C        C      0.679100000000     0.522600000000     0.346400000000     0.0383493  
C        C      0.650800000000     0.999500000000     0.344400000000     0.0383493  
C        C      0.659300000000     0.852500000000     0.571200000000     0.0383493  
C        C      0.665300000000     0.849800000000     0.644700000000     0.0383493  
C        C      0.677400000000     0.735200000000     0.684900000000     0.0383493  
C        C      0.685700000000     0.624400000000     0.645600000000     0.0383493  
C        C      0.679000000000     0.635500000000     0.571600000000     0.0383493  
C        C      0.679900000000     0.732700000000     0.765100000000     0.0383493  
C        C      0.605400000000     0.840200000000     0.805700000000     0.0383493  
C        C      0.608600000000     0.841600000000     0.880400000000     0.0383493  
C        C      0.685900000000     0.734700000000     0.919000000000     0.0383493  
C        C      0.759600000000     0.627100000000     0.878400000000     0.0383493  
C        C      0.755100000000     0.624100000000     0.803900000000     0.0383493  
C        C      0.689000000000     0.740100000000     0.998900000000     0.0383493  
C        C      0.572100000000     0.801700000000     0.040900000000     0.0383493  
C        C      0.575900000000     0.806300000000     0.115800000000     0.0383493  
C        C      0.795100000000     0.692000000000     0.110600000000     0.0383493  
C        C      0.800000000000     0.682100000000     0.035600000000     0.0383493  
N        N      0.333800000000     0.251700000000     0.466900000000    -0.166002   
N        N      0.314900000000     0.244500000000     0.849500000000    -0.166002   
N        N      0.666200000000     0.748300000000     0.533100000000    -0.166002   
N        N      0.685100000000     0.755500000000     0.150500000000    -0.166002   
O        O      0.539500000000     0.197500000000     0.595700000000    -0.280525   
O        O      0.517200000000     0.194800000000     0.717700000000    -0.280525   
O        O      0.123600000000     0.274000000000     0.731300000000    -0.280525   
O        O      0.145400000000     0.281600000000     0.609200000000    -0.280525   
O        O      0.330900000000     0.427500000000     0.592200000000    -0.280525   
O        O      0.304800000000     0.424700000000     0.713500000000    -0.280525   
O        O      0.342200000000     0.050100000000     0.716200000000    -0.280525   
O        O      0.358800000000     0.052700000000     0.594200000000    -0.280525   
O        O      0.460500000000     0.802500000000     0.404300000000    -0.280525   
O        O      0.482800000000     0.805200000000     0.282300000000    -0.280525   
O        O      0.876400000000     0.726000000000     0.268700000000    -0.280525   
O        O      0.854600000000     0.718400000000     0.390800000000    -0.280525   
O        O      0.669100000000     0.572500000000     0.407800000000    -0.280525   
O        O      0.695200000000     0.575300000000     0.286500000000    -0.280525   
O        O      0.657800000000     0.949900000000     0.283800000000    -0.280525   
O        O      0.641200000000     0.947300000000     0.405800000000    -0.280525   
F        F      0.167400000000     0.484600000000     0.230900000000    -0.409842   
F        F      0.164300000000     0.483800000000     0.088900000000    -0.409842   
F        F      0.832600000000     0.515400000000     0.769100000000    -0.409842   
F        F      0.835700000000     0.516200000000     0.911100000000    -0.409842   


