data_KAXQIL_original

_audit_creation_method RASPA-1.0
_audit_creation_date 2022-1-30
_audit_author_name 'Felipe Lopes de Oliveira <felipe.lopes.oliveira@ibm.com>'

_cell_length_a    5.5673
_cell_length_b    11.8214
_cell_length_c    22.7603
_cell_angle_alpha 100.356
_cell_angle_beta  90
_cell_angle_gamma 90
_cell_volume      1473.53

_symmetry_cell_setting          triclinic
_symmetry_space_group_name_Hall 'P 1'
_symmetry_space_group_name_H-M  'P 1'
_symmetry_Int_Tables_number     1

_symmetry_equiv_pos_as_xyz 'x,y,z'

loop_
_atom_site_label
_atom_site_type_symbol
_atom_site_fract_x
_atom_site_fract_y
_atom_site_fract_z
_atom_site_charge
Ca       Ca     0.755850000000     0.636820000000     0.722870000000     1.55839    
Ca       Ca     0.255850000000     0.863180000000     0.777130000000     1.55839    
Ca       Ca     0.244150000000     0.363180000000     0.277130000000     1.55839    
Ca       Ca     0.744150000000     0.136820000000     0.222870000000     1.55839    
H        H      0.199600000000     0.194500000000     0.618900000000     0.0447781  
H        H      0.124900000000     0.231800000000     0.406100000000     0.0447781  
H        H      0.554100000000     0.420600000000     0.537200000000     0.0447781  
H        H      0.562300000000     0.338800000000     0.672900000000     0.0447781  
H        H      0.478300000000     0.183900000000     0.719700000000     0.0447781  
H        H      0.118600000000     0.043900000000     0.669100000000     0.0447781  
H        H      0.206600000000     0.275100000000     0.507800000000     0.0447781  
H        H      0.471300000000     0.373100000000     0.435800000000     0.0447781  
H        H      0.699600000000     0.305500000000     0.881100000000     0.0447781  
H        H      0.624900000000     0.268200000000     0.093900000000     0.0447781  
H        H      0.054100000000     0.079400000000     0.962800000000     0.0447781  
H        H      0.062300000000     0.161200000000     0.827100000000     0.0447781  
H        H      0.978300000000     0.316100000000     0.780300000000     0.0447781  
H        H      0.618600000000     0.456100000000     0.830900000000     0.0447781  
H        H      0.706600000000     0.224900000000     0.992200000000     0.0447781  
H        H      0.971300000000     0.126900000000     0.064200000000     0.0447781  
H        H      0.800400000000     0.805500000000     0.381100000000     0.0447781  
H        H      0.875100000000     0.768200000000     0.593900000000     0.0447781  
H        H      0.445900000000     0.579400000000     0.462800000000     0.0447781  
H        H      0.437700000000     0.661200000000     0.327100000000     0.0447781  
H        H      0.521700000000     0.816100000000     0.280300000000     0.0447781  
H        H      0.881400000000     0.956100000000     0.330900000000     0.0447781  
H        H      0.793400000000     0.724900000000     0.492200000000     0.0447781  
H        H      0.528700000000     0.626900000000     0.564200000000     0.0447781  
H        H      0.300400000000     0.694500000000     0.118900000000     0.0447781  
H        H      0.375100000000     0.731800000000     0.906100000000     0.0447781  
H        H      0.945900000000     0.920600000000     0.037200000000     0.0447781  
H        H      0.937700000000     0.838800000000     0.172900000000     0.0447781  
H        H      0.021700000000     0.683900000000     0.219700000000     0.0447781  
H        H      0.381400000000     0.543900000000     0.169100000000     0.0447781  
H        H      0.293400000000     0.775100000000     0.007800000000     0.0447781  
H        H      0.028700000000     0.873100000000     0.935800000000     0.0447781  
C        C      0.741400000000     0.004540000000     0.734890000000     0.0326356  
C        C      0.739300000000     0.276740000000     0.344930000000     0.0326356  
C        C      0.890800000000     0.355060000000     0.531360000000     0.0326356  
C        C      0.889600000000     0.281060000000     0.642190000000     0.0326356  
C        C      0.056700000000     0.192960000000     0.639960000000     0.0326356  
C        C      0.011400000000     0.270250000000     0.432280000000     0.0326356  
C        C      0.792700000000     0.301280000000     0.410690000000     0.0326356  
C        C      0.668700000000     0.383440000000     0.510800000000     0.0326356  
C        C      0.672800000000     0.279490000000     0.671900000000     0.0326356  
C        C      0.624400000000     0.187240000000     0.700250000000     0.0326356  
C        C      0.007100000000     0.102620000000     0.669600000000     0.0326356  
C        C      0.061000000000     0.296550000000     0.493050000000     0.0326356  
C        C      0.791700000000     0.099820000000     0.699940000000     0.0326356  
C        C      0.620400000000     0.355460000000     0.450210000000     0.0326356  
C        C      0.241400000000     0.495460000000     0.765110000000     0.0326356  
C        C      0.239300000000     0.223260000000     0.155070000000     0.0326356  
C        C      0.390800000000     0.144940000000     0.968640000000     0.0326356  
C        C      0.389600000000     0.218940000000     0.857810000000     0.0326356  
C        C      0.556700000000     0.307040000000     0.860040000000     0.0326356  
C        C      0.511400000000     0.229750000000     0.067720000000     0.0326356  
C        C      0.292700000000     0.198720000000     0.089310000000     0.0326356  
C        C      0.168700000000     0.116560000000     0.989200000000     0.0326356  
C        C      0.172800000000     0.220510000000     0.828100000000     0.0326356  
C        C      0.124400000000     0.312760000000     0.799750000000     0.0326356  
C        C      0.507100000000     0.397380000000     0.830400000000     0.0326356  
C        C      0.561000000000     0.203450000000     0.006950000000     0.0326356  
C        C      0.291700000000     0.400180000000     0.800060000000     0.0326356  
C        C      0.120400000000     0.144540000000     0.049790000000     0.0326356  
C        C      0.258600000000     0.995460000000     0.265110000000     0.0326356  
C        C      0.260700000000     0.723260000000     0.655070000000     0.0326356  
C        C      0.109200000000     0.644940000000     0.468640000000     0.0326356  
C        C      0.110400000000     0.718940000000     0.357810000000     0.0326356  
C        C      0.943300000000     0.807040000000     0.360040000000     0.0326356  
C        C      0.988600000000     0.729750000000     0.567720000000     0.0326356  
C        C      0.207300000000     0.698720000000     0.589310000000     0.0326356  
C        C      0.331300000000     0.616560000000     0.489200000000     0.0326356  
C        C      0.327200000000     0.720510000000     0.328100000000     0.0326356  
C        C      0.375600000000     0.812760000000     0.299750000000     0.0326356  
C        C      0.992900000000     0.897380000000     0.330400000000     0.0326356  
C        C      0.939000000000     0.703450000000     0.506950000000     0.0326356  
C        C      0.208300000000     0.900180000000     0.300060000000     0.0326356  
C        C      0.379600000000     0.644540000000     0.549790000000     0.0326356  
C        C      0.758600000000     0.504540000000     0.234890000000     0.0326356  
C        C      0.760700000000     0.776740000000     0.844930000000     0.0326356  
C        C      0.609200000000     0.855060000000     0.031360000000     0.0326356  
C        C      0.610400000000     0.781060000000     0.142190000000     0.0326356  
C        C      0.443300000000     0.692960000000     0.139960000000     0.0326356  
C        C      0.488600000000     0.770250000000     0.932280000000     0.0326356  
C        C      0.707300000000     0.801280000000     0.910690000000     0.0326356  
C        C      0.831300000000     0.883440000000     0.010800000000     0.0326356  
C        C      0.827200000000     0.779490000000     0.171900000000     0.0326356  
C        C      0.875600000000     0.687240000000     0.200250000000     0.0326356  
C        C      0.492900000000     0.602620000000     0.169600000000     0.0326356  
C        C      0.439000000000     0.796550000000     0.993050000000     0.0326356  
C        C      0.708300000000     0.599820000000     0.199940000000     0.0326356  
C        C      0.879600000000     0.855460000000     0.950210000000     0.0326356  
S        S      0.963630000000     0.398350000000     0.607680000000     0.311775   
S        S      0.463630000000     0.101650000000     0.892320000000     0.311775   
S        S      0.036370000000     0.601650000000     0.392320000000     0.311775   
S        S      0.536370000000     0.898350000000     0.107680000000     0.311775   
O        O      0.805000000000     0.493100000000     0.630960000000    -0.447548   
O        O      0.915200000000     0.262260000000     0.309360000000    -0.447548   
O        O      0.218900000000     0.415340000000     0.611760000000    -0.447548   
O        O      0.525700000000     0.984230000000     0.743780000000    -0.447548   
O        O      0.919100000000     0.956950000000     0.752850000000    -0.447548   
O        O      0.525100000000     0.267580000000     0.328320000000    -0.447548   
O        O      0.305000000000     0.006900000000     0.869040000000    -0.447548   
O        O      0.415200000000     0.237740000000     0.190640000000    -0.447548   
O        O      0.718900000000     0.084660000000     0.888240000000    -0.447548   
O        O      0.025700000000     0.515770000000     0.756220000000    -0.447548   
O        O      0.419100000000     0.543050000000     0.747150000000    -0.447548   
O        O      0.025100000000     0.232420000000     0.171680000000    -0.447548   
O        O      0.195000000000     0.506900000000     0.369040000000    -0.447548   
O        O      0.084800000000     0.737740000000     0.690640000000    -0.447548   
O        O      0.781100000000     0.584660000000     0.388240000000    -0.447548   
O        O      0.474300000000     0.015770000000     0.256220000000    -0.447548   
O        O      0.080900000000     0.043050000000     0.247150000000    -0.447548   
O        O      0.474900000000     0.732420000000     0.671680000000    -0.447548   
O        O      0.695000000000     0.993100000000     0.130960000000    -0.447548   
O        O      0.584800000000     0.762260000000     0.809360000000    -0.447548   
O        O      0.281100000000     0.915340000000     0.111760000000    -0.447548   
O        O      0.974300000000     0.484230000000     0.243780000000    -0.447548   
O        O      0.580900000000     0.456950000000     0.252850000000    -0.447548   
O        O      0.974900000000     0.767580000000     0.828320000000    -0.447548   


