data_KEFBEE_original

_audit_creation_method RASPA-1.0
_audit_creation_date 2022-1-29
_audit_author_name 'Felipe Lopes de Oliveira <felipe.lopes.oliveira@ibm.com>'

_cell_length_a    15.4128
_cell_length_b    15.4128
_cell_length_c    15.4128
_cell_angle_alpha 76.3412
_cell_angle_beta  76.3412
_cell_angle_gamma 76.3412
_cell_volume      3393.55

_symmetry_cell_setting          triclinic
_symmetry_space_group_name_Hall 'P 1'
_symmetry_space_group_name_H-M  'P 1'
_symmetry_Int_Tables_number     1

_symmetry_equiv_pos_as_xyz 'x,y,z'

loop_
_atom_site_label
_atom_site_type_symbol
_atom_site_fract_x
_atom_site_fract_y
_atom_site_fract_z
_atom_site_charge
Zn       Zn     0.088210000000     0.513260000000     0.513260000000     0.452679   
Zn       Zn     0.513260000000     0.088210000000     0.513260000000     0.452679   
Zn       Zn     0.513260000000     0.513260000000     0.088210000000     0.452679   
Zn       Zn     0.486740000000     0.911790000000     0.486740000000     0.452679   
Zn       Zn     0.911790000000     0.486740000000     0.486740000000     0.452679   
Zn       Zn     0.486740000000     0.486740000000     0.911790000000     0.452679   
H        H      0.986800000000     0.196900000000     0.506400000000     0.0706151  
H        H      0.506400000000     0.986800000000     0.196900000000     0.0706151  
H        H      0.196900000000     0.506400000000     0.986800000000     0.0706151  
H        H      0.803100000000     0.013200000000     0.493600000000     0.0706151  
H        H      0.013200000000     0.493600000000     0.803100000000     0.0706151  
H        H      0.493600000000     0.803100000000     0.013200000000     0.0706151  
H        H      0.013200000000     0.803100000000     0.493600000000     0.0706151  
H        H      0.493600000000     0.013200000000     0.803100000000     0.0706151  
H        H      0.803100000000     0.493600000000     0.013200000000     0.0706151  
H        H      0.196900000000     0.986800000000     0.506400000000     0.0706151  
H        H      0.986800000000     0.506400000000     0.196900000000     0.0706151  
H        H      0.506400000000     0.196900000000     0.986800000000     0.0706151  
H        H      0.232500000000     0.232500000000     0.523000000000     0.0706151  
H        H      0.523000000000     0.232500000000     0.232500000000     0.0706151  
H        H      0.232500000000     0.523000000000     0.232500000000     0.0706151  
H        H      0.767500000000     0.767500000000     0.477000000000     0.0706151  
H        H      0.767500000000     0.477000000000     0.767500000000     0.0706151  
H        H      0.477000000000     0.767500000000     0.767500000000     0.0706151  
C        C      0.065500000000     0.329240000000     0.514270000000     0.0557077  
C        C      0.103830000000     0.230050000000     0.515340000000     0.0557077  
C        C      0.047620000000     0.173420000000     0.509620000000     0.0557077  
C        C      0.514270000000     0.065500000000     0.329240000000     0.0557077  
C        C      0.515340000000     0.103830000000     0.230050000000     0.0557077  
C        C      0.509620000000     0.047620000000     0.173420000000     0.0557077  
C        C      0.329240000000     0.514270000000     0.065500000000     0.0557077  
C        C      0.230050000000     0.515340000000     0.103830000000     0.0557077  
C        C      0.173420000000     0.509620000000     0.047620000000     0.0557077  
C        C      0.670760000000     0.934500000000     0.485730000000     0.0557077  
C        C      0.769950000000     0.896170000000     0.484660000000     0.0557077  
C        C      0.826580000000     0.952380000000     0.490380000000     0.0557077  
C        C      0.934500000000     0.485730000000     0.670760000000     0.0557077  
C        C      0.896170000000     0.484660000000     0.769950000000     0.0557077  
C        C      0.952380000000     0.490380000000     0.826580000000     0.0557077  
C        C      0.485730000000     0.670760000000     0.934500000000     0.0557077  
C        C      0.484660000000     0.769950000000     0.896170000000     0.0557077  
C        C      0.490380000000     0.826580000000     0.952380000000     0.0557077  
C        C      0.934500000000     0.670760000000     0.485730000000     0.0557077  
C        C      0.896170000000     0.769950000000     0.484660000000     0.0557077  
C        C      0.952380000000     0.826580000000     0.490380000000     0.0557077  
C        C      0.485730000000     0.934500000000     0.670760000000     0.0557077  
C        C      0.484660000000     0.896170000000     0.769950000000     0.0557077  
C        C      0.490380000000     0.952380000000     0.826580000000     0.0557077  
C        C      0.670760000000     0.485730000000     0.934500000000     0.0557077  
C        C      0.769950000000     0.484660000000     0.896170000000     0.0557077  
C        C      0.826580000000     0.490380000000     0.952380000000     0.0557077  
C        C      0.329240000000     0.065500000000     0.514270000000     0.0557077  
C        C      0.230050000000     0.103830000000     0.515340000000     0.0557077  
C        C      0.173420000000     0.047620000000     0.509620000000     0.0557077  
C        C      0.065500000000     0.514270000000     0.329240000000     0.0557077  
C        C      0.103830000000     0.515340000000     0.230050000000     0.0557077  
C        C      0.047620000000     0.509620000000     0.173420000000     0.0557077  
C        C      0.514270000000     0.329240000000     0.065500000000     0.0557077  
C        C      0.515340000000     0.230050000000     0.103830000000     0.0557077  
C        C      0.509620000000     0.173420000000     0.047620000000     0.0557077  
C        C      0.082420000000     0.082420000000     0.508670000000     0.0557077  
C        C      0.023170000000     0.023170000000     0.502370000000     0.0557077  
C        C      0.195010000000     0.195010000000     0.518660000000     0.0557077  
C        C      0.508670000000     0.082420000000     0.082420000000     0.0557077  
C        C      0.502370000000     0.023170000000     0.023170000000     0.0557077  
C        C      0.518660000000     0.195010000000     0.195010000000     0.0557077  
C        C      0.082420000000     0.508670000000     0.082420000000     0.0557077  
C        C      0.023170000000     0.502370000000     0.023170000000     0.0557077  
C        C      0.195010000000     0.518660000000     0.195010000000     0.0557077  
C        C      0.917580000000     0.917580000000     0.491330000000     0.0557077  
C        C      0.976830000000     0.976830000000     0.497630000000     0.0557077  
C        C      0.804990000000     0.804990000000     0.481340000000     0.0557077  
C        C      0.917580000000     0.491330000000     0.917580000000     0.0557077  
C        C      0.976830000000     0.497630000000     0.976830000000     0.0557077  
C        C      0.804990000000     0.481340000000     0.804990000000     0.0557077  
C        C      0.491330000000     0.917580000000     0.917580000000     0.0557077  
C        C      0.497630000000     0.976830000000     0.976830000000     0.0557077  
C        C      0.481340000000     0.804990000000     0.804990000000     0.0557077  
O        O      0.985790000000     0.357330000000     0.505590000000    -0.291473   
O        O      0.119250000000     0.375790000000     0.521490000000    -0.291473   
O        O      0.505590000000     0.985790000000     0.357330000000    -0.291473   
O        O      0.521490000000     0.119250000000     0.375790000000    -0.291473   
O        O      0.357330000000     0.505590000000     0.985790000000    -0.291473   
O        O      0.375790000000     0.521490000000     0.119250000000    -0.291473   
O        O      0.642670000000     0.014210000000     0.494410000000    -0.291473   
O        O      0.624210000000     0.880750000000     0.478510000000    -0.291473   
O        O      0.014210000000     0.494410000000     0.642670000000    -0.291473   
O        O      0.880750000000     0.478510000000     0.624210000000    -0.291473   
O        O      0.494410000000     0.642670000000     0.014210000000    -0.291473   
O        O      0.478510000000     0.624210000000     0.880750000000    -0.291473   
O        O      0.014210000000     0.642670000000     0.494410000000    -0.291473   
O        O      0.880750000000     0.624210000000     0.478510000000    -0.291473   
O        O      0.494410000000     0.014210000000     0.642670000000    -0.291473   
O        O      0.478510000000     0.880750000000     0.624210000000    -0.291473   
O        O      0.642670000000     0.494410000000     0.014210000000    -0.291473   
O        O      0.624210000000     0.478510000000     0.880750000000    -0.291473   
O        O      0.357330000000     0.985790000000     0.505590000000    -0.291473   
O        O      0.375790000000     0.119250000000     0.521490000000    -0.291473   
O        O      0.985790000000     0.505590000000     0.357330000000    -0.291473   
O        O      0.119250000000     0.521490000000     0.375790000000    -0.291473   
O        O      0.505590000000     0.357330000000     0.985790000000    -0.291473   
O        O      0.521490000000     0.375790000000     0.119250000000    -0.291473   


