data_KEWZOD_original

_audit_creation_method RASPA-1.0
_audit_creation_date 2022-1-30
_audit_author_name 'Felipe Lopes de Oliveira <felipe.lopes.oliveira@ibm.com>'

_cell_length_a    11.4414
_cell_length_b    15.1309
_cell_length_c    18.0855
_cell_angle_alpha 90
_cell_angle_beta  90
_cell_angle_gamma 90
_cell_volume      3130.94

_symmetry_cell_setting          triclinic
_symmetry_space_group_name_Hall 'P 1'
_symmetry_space_group_name_H-M  'P 1'
_symmetry_Int_Tables_number     1

_symmetry_equiv_pos_as_xyz 'x,y,z'

loop_
_atom_site_label
_atom_site_type_symbol
_atom_site_fract_x
_atom_site_fract_y
_atom_site_fract_z
_atom_site_charge
Zn       Zn     0.500000000000     0.552130000000     0.098420000000     0.463769   
Zn       Zn     0.500000000000     0.447870000000     0.901580000000     0.463769   
Zn       Zn     0.500000000000     0.947870000000     0.598420000000     0.463769   
Zn       Zn     0.500000000000     0.052130000000     0.401580000000     0.463769   
H        H      0.710600000000     0.667000000000     0.050300000000     0.0539713  
H        H      0.912000000000     0.671000000000     0.051600000000     0.0539713  
H        H      0.908000000000     0.435800000000     0.136900000000     0.0539713  
H        H      0.714500000000     0.440400000000     0.140100000000     0.0539713  
H        H      0.710600000000     0.333000000000     0.949700000000     0.0539713  
H        H      0.912000000000     0.329000000000     0.948400000000     0.0539713  
H        H      0.908000000000     0.564200000000     0.863100000000     0.0539713  
H        H      0.714500000000     0.559600000000     0.859900000000     0.0539713  
H        H      0.289400000000     0.833000000000     0.550300000000     0.0539713  
H        H      0.088000000000     0.829000000000     0.551600000000     0.0539713  
H        H      0.092000000000     0.064200000000     0.636900000000     0.0539713  
H        H      0.285500000000     0.059600000000     0.640100000000     0.0539713  
H        H      0.289400000000     0.167000000000     0.449700000000     0.0539713  
H        H      0.088000000000     0.171000000000     0.448400000000     0.0539713  
H        H      0.092000000000     0.935800000000     0.363100000000     0.0539713  
H        H      0.285500000000     0.940400000000     0.359900000000     0.0539713  
H        H      0.289400000000     0.333000000000     0.949700000000     0.0539713  
H        H      0.088000000000     0.329000000000     0.948400000000     0.0539713  
H        H      0.092000000000     0.564200000000     0.863100000000     0.0539713  
H        H      0.285500000000     0.559600000000     0.859900000000     0.0539713  
H        H      0.289400000000     0.667000000000     0.050300000000     0.0539713  
H        H      0.088000000000     0.671000000000     0.051600000000     0.0539713  
H        H      0.092000000000     0.435800000000     0.136900000000     0.0539713  
H        H      0.285500000000     0.440400000000     0.140100000000     0.0539713  
H        H      0.710600000000     0.167000000000     0.449700000000     0.0539713  
H        H      0.912000000000     0.171000000000     0.448400000000     0.0539713  
H        H      0.908000000000     0.935800000000     0.363100000000     0.0539713  
H        H      0.714500000000     0.940400000000     0.359900000000     0.0539713  
H        H      0.710600000000     0.833000000000     0.550300000000     0.0539713  
H        H      0.912000000000     0.829000000000     0.551600000000     0.0539713  
H        H      0.908000000000     0.064200000000     0.636900000000     0.0539713  
H        H      0.714500000000     0.059600000000     0.640100000000     0.0539713  
H        H      0.500000000000     0.961800000000     0.836500000000     0.0539713  
H        H      0.500000000000     0.796600000000     0.012200000000     0.0539713  
H        H      0.500000000000     0.699600000000     0.805000000000     0.0539713  
H        H      0.500000000000     0.038200000000     0.163500000000     0.0539713  
H        H      0.500000000000     0.203400000000     0.987800000000     0.0539713  
H        H      0.500000000000     0.300400000000     0.195000000000     0.0539713  
H        H      0.500000000000     0.538200000000     0.336500000000     0.0539713  
H        H      0.500000000000     0.703400000000     0.512200000000     0.0539713  
H        H      0.500000000000     0.800400000000     0.305000000000     0.0539713  
H        H      0.500000000000     0.461800000000     0.663500000000     0.0539713  
H        H      0.500000000000     0.296600000000     0.487800000000     0.0539713  
H        H      0.500000000000     0.199600000000     0.695000000000     0.0539713  
C        C      0.750800000000     0.618900000000     0.069700000000     0.0232112  
C        C      0.873700000000     0.621700000000     0.070500000000     0.0232112  
C        C      0.935400000000     0.555600000000     0.097700000000     0.0232112  
C        C      0.870400000000     0.486700000000     0.120400000000     0.0232112  
C        C      0.753600000000     0.488700000000     0.120200000000     0.0232112  
C        C      0.750800000000     0.381100000000     0.930300000000     0.0232112  
C        C      0.873700000000     0.378300000000     0.929500000000     0.0232112  
C        C      0.935400000000     0.444400000000     0.902300000000     0.0232112  
C        C      0.870400000000     0.513300000000     0.879600000000     0.0232112  
C        C      0.753600000000     0.511300000000     0.879800000000     0.0232112  
C        C      0.249200000000     0.881100000000     0.569700000000     0.0232112  
C        C      0.126300000000     0.878300000000     0.570500000000     0.0232112  
C        C      0.064600000000     0.944400000000     0.597700000000     0.0232112  
C        C      0.129600000000     0.013300000000     0.620400000000     0.0232112  
C        C      0.246400000000     0.011300000000     0.620200000000     0.0232112  
C        C      0.249200000000     0.118900000000     0.430300000000     0.0232112  
C        C      0.126300000000     0.121700000000     0.429500000000     0.0232112  
C        C      0.064600000000     0.055600000000     0.402300000000     0.0232112  
C        C      0.129600000000     0.986700000000     0.379600000000     0.0232112  
C        C      0.246400000000     0.988700000000     0.379800000000     0.0232112  
C        C      0.249200000000     0.381100000000     0.930300000000     0.0232112  
C        C      0.126300000000     0.378300000000     0.929500000000     0.0232112  
C        C      0.064600000000     0.444400000000     0.902300000000     0.0232112  
C        C      0.129600000000     0.513300000000     0.879600000000     0.0232112  
C        C      0.246400000000     0.511300000000     0.879800000000     0.0232112  
C        C      0.249200000000     0.618900000000     0.069700000000     0.0232112  
C        C      0.126300000000     0.621700000000     0.070500000000     0.0232112  
C        C      0.064600000000     0.555600000000     0.097700000000     0.0232112  
C        C      0.129600000000     0.486700000000     0.120400000000     0.0232112  
C        C      0.246400000000     0.488700000000     0.120200000000     0.0232112  
C        C      0.750800000000     0.118900000000     0.430300000000     0.0232112  
C        C      0.873700000000     0.121700000000     0.429500000000     0.0232112  
C        C      0.935400000000     0.055600000000     0.402300000000     0.0232112  
C        C      0.870400000000     0.986700000000     0.379600000000     0.0232112  
C        C      0.753600000000     0.988700000000     0.379800000000     0.0232112  
C        C      0.750800000000     0.881100000000     0.569700000000     0.0232112  
C        C      0.873700000000     0.878300000000     0.570500000000     0.0232112  
C        C      0.935400000000     0.944400000000     0.597700000000     0.0232112  
C        C      0.870400000000     0.013300000000     0.620400000000     0.0232112  
C        C      0.753600000000     0.011300000000     0.620200000000     0.0232112  
C        C      0.500000000000     0.833900000000     0.808400000000     0.0232112  
C        C      0.500000000000     0.904800000000     0.855700000000     0.0232112  
C        C      0.500000000000     0.892500000000     0.933900000000     0.0232112  
C        C      0.500000000000     0.806000000000     0.961400000000     0.0232112  
C        C      0.500000000000     0.734900000000     0.914200000000     0.0232112  
C        C      0.500000000000     0.747900000000     0.836800000000     0.0232112  
C        C      0.500000000000     0.849000000000     0.726200000000     0.0232112  
C        C      0.500000000000     0.643100000000     0.944700000000     0.0232112  
C        C      0.500000000000     0.967200000000     0.981300000000     0.0232112  
C        C      0.500000000000     0.166100000000     0.191600000000     0.0232112  
C        C      0.500000000000     0.095200000000     0.144300000000     0.0232112  
C        C      0.500000000000     0.107500000000     0.066100000000     0.0232112  
C        C      0.500000000000     0.194000000000     0.038600000000     0.0232112  
C        C      0.500000000000     0.265100000000     0.085800000000     0.0232112  
C        C      0.500000000000     0.252100000000     0.163200000000     0.0232112  
C        C      0.500000000000     0.151000000000     0.273800000000     0.0232112  
C        C      0.500000000000     0.356900000000     0.055300000000     0.0232112  
C        C      0.500000000000     0.032800000000     0.018700000000     0.0232112  
C        C      0.500000000000     0.666100000000     0.308400000000     0.0232112  
C        C      0.500000000000     0.595200000000     0.355700000000     0.0232112  
C        C      0.500000000000     0.607500000000     0.433900000000     0.0232112  
C        C      0.500000000000     0.694000000000     0.461400000000     0.0232112  
C        C      0.500000000000     0.765100000000     0.414200000000     0.0232112  
C        C      0.500000000000     0.752100000000     0.336800000000     0.0232112  
C        C      0.500000000000     0.651000000000     0.226200000000     0.0232112  
C        C      0.500000000000     0.856900000000     0.444700000000     0.0232112  
C        C      0.500000000000     0.532800000000     0.481300000000     0.0232112  
C        C      0.500000000000     0.333900000000     0.691600000000     0.0232112  
C        C      0.500000000000     0.404800000000     0.644300000000     0.0232112  
C        C      0.500000000000     0.392500000000     0.566100000000     0.0232112  
C        C      0.500000000000     0.306000000000     0.538600000000     0.0232112  
C        C      0.500000000000     0.234900000000     0.585800000000     0.0232112  
C        C      0.500000000000     0.247900000000     0.663200000000     0.0232112  
C        C      0.500000000000     0.349000000000     0.773800000000     0.0232112  
C        C      0.500000000000     0.143100000000     0.555300000000     0.0232112  
C        C      0.500000000000     0.467200000000     0.518700000000     0.0232112  
N        N      0.690800000000     0.552700000000     0.094500000000    -0.164334   
N        N      0.690800000000     0.447300000000     0.905500000000    -0.164334   
N        N      0.309200000000     0.947300000000     0.594500000000    -0.164334   
N        N      0.309200000000     0.052700000000     0.405500000000    -0.164334   
N        N      0.309200000000     0.447300000000     0.905500000000    -0.164334   
N        N      0.309200000000     0.552700000000     0.094500000000    -0.164334   
N        N      0.690800000000     0.052700000000     0.405500000000    -0.164334   
N        N      0.690800000000     0.947300000000     0.594500000000    -0.164334   
O        O      0.500000000000     0.635900000000     0.013500000000    -0.292449   
O        O      0.500000000000     0.580400000000     0.899800000000    -0.292449   
O        O      0.500000000000     0.928200000000     0.706400000000    -0.292449   
O        O      0.500000000000     0.788400000000     0.684200000000    -0.292449   
O        O      0.500000000000     0.364100000000     0.986500000000    -0.292449   
O        O      0.500000000000     0.419600000000     0.100200000000    -0.292449   
O        O      0.500000000000     0.071800000000     0.293600000000    -0.292449   
O        O      0.500000000000     0.211600000000     0.315800000000    -0.292449   
O        O      0.500000000000     0.864100000000     0.513500000000    -0.292449   
O        O      0.500000000000     0.919600000000     0.399800000000    -0.292449   
O        O      0.500000000000     0.571800000000     0.206400000000    -0.292449   
O        O      0.500000000000     0.711600000000     0.184200000000    -0.292449   
O        O      0.500000000000     0.135900000000     0.486500000000    -0.292449   
O        O      0.500000000000     0.080400000000     0.600200000000    -0.292449   
O        O      0.500000000000     0.428200000000     0.793600000000    -0.292449   
O        O      0.500000000000     0.288400000000     0.815800000000    -0.292449   


