data_KEXKEF_original

_audit_creation_method RASPA-1.0
_audit_creation_date 2022-1-30
_audit_author_name 'Felipe Lopes de Oliveira <felipe.lopes.oliveira@ibm.com>'

_cell_length_a    7.2776
_cell_length_b    7.2776
_cell_length_c    26.931
_cell_angle_alpha 90
_cell_angle_beta  90
_cell_angle_gamma 90.4899
_cell_volume      1426.31

_symmetry_cell_setting          triclinic
_symmetry_space_group_name_Hall 'P 1'
_symmetry_space_group_name_H-M  'P 1'
_symmetry_Int_Tables_number     1

_symmetry_equiv_pos_as_xyz 'x,y,z'

loop_
_atom_site_label
_atom_site_type_symbol
_atom_site_fract_x
_atom_site_fract_y
_atom_site_fract_z
_atom_site_charge
Zn       Zn     0.039710000000     0.687850000000     0.720950000000     0.465486   
Zn       Zn     0.687850000000     0.039710000000     0.279050000000     0.465486   
Zn       Zn     0.187850000000     0.539710000000     0.220950000000     0.465486   
Zn       Zn     0.539710000000     0.187850000000     0.779050000000     0.465486   
H        H      0.322600000000     0.686200000000     0.859500000000     0.0943976  
H        H      0.115700000000     0.685500000000     0.839200000000     0.0943976  
H        H      0.665300000000     0.685700000000     0.637200000000     0.0943976  
H        H      0.454200000000     0.662000000000     0.700200000000     0.0943976  
H        H      0.044900000000     0.731500000000     0.607700000000     0.0943976  
H        H      0.243900000000     0.755900000000     0.541500000000     0.0943976  
H        H      0.596200000000     0.867400000000     0.523200000000     0.0943976  
H        H      0.740700000000     0.744900000000     0.552900000000     0.0943976  
H        H      0.474400000000     0.604600000000     0.483900000000     0.0943976  
H        H      0.686200000000     0.322600000000     0.140500000000     0.0943976  
H        H      0.685500000000     0.115700000000     0.160800000000     0.0943976  
H        H      0.685700000000     0.665300000000     0.362800000000     0.0943976  
H        H      0.662000000000     0.454200000000     0.299800000000     0.0943976  
H        H      0.731500000000     0.044900000000     0.392300000000     0.0943976  
H        H      0.755900000000     0.243900000000     0.458500000000     0.0943976  
H        H      0.867400000000     0.596200000000     0.476800000000     0.0943976  
H        H      0.744900000000     0.740700000000     0.447100000000     0.0943976  
H        H      0.604600000000     0.474400000000     0.516100000000     0.0943976  
H        H      0.186200000000     0.822600000000     0.359500000000     0.0943976  
H        H      0.185500000000     0.615700000000     0.339200000000     0.0943976  
H        H      0.185700000000     0.165300000000     0.137200000000     0.0943976  
H        H      0.162000000000     0.954200000000     0.200200000000     0.0943976  
H        H      0.231500000000     0.544900000000     0.107700000000     0.0943976  
H        H      0.255900000000     0.743900000000     0.041500000000     0.0943976  
H        H      0.367400000000     0.096200000000     0.023200000000     0.0943976  
H        H      0.244900000000     0.240700000000     0.052900000000     0.0943976  
H        H      0.104600000000     0.974400000000     0.983900000000     0.0943976  
H        H      0.822600000000     0.186200000000     0.640500000000     0.0943976  
H        H      0.615700000000     0.185500000000     0.660800000000     0.0943976  
H        H      0.165300000000     0.185700000000     0.862800000000     0.0943976  
H        H      0.954200000000     0.162000000000     0.799800000000     0.0943976  
H        H      0.544900000000     0.231500000000     0.892300000000     0.0943976  
H        H      0.743900000000     0.255900000000     0.958500000000     0.0943976  
H        H      0.096200000000     0.367400000000     0.976800000000     0.0943976  
H        H      0.240700000000     0.244900000000     0.947100000000     0.0943976  
H        H      0.974400000000     0.104600000000     0.016100000000     0.0943976  
C        C      0.286400000000     0.860800000000     0.799870000000     0.0118768  
C        C      0.246500000000     0.686700000000     0.829010000000     0.0118768  
C        C      0.286100000000     0.514300000000     0.798800000000     0.0118768  
C        C      0.538000000000     0.696400000000     0.630070000000     0.0118768  
C        C      0.410600000000     0.682600000000     0.667480000000     0.0118768  
C        C      0.173100000000     0.722700000000     0.613760000000     0.0118768  
C        C      0.291100000000     0.737700000000     0.574060000000     0.0118768  
C        C      0.478800000000     0.726200000000     0.581650000000     0.0118768  
C        C      0.614500000000     0.746500000000     0.539250000000     0.0118768  
C        C      0.860800000000     0.286400000000     0.200130000000     0.0118768  
C        C      0.686700000000     0.246500000000     0.170990000000     0.0118768  
C        C      0.514300000000     0.286100000000     0.201200000000     0.0118768  
C        C      0.696400000000     0.538000000000     0.369930000000     0.0118768  
C        C      0.682600000000     0.410600000000     0.332520000000     0.0118768  
C        C      0.722700000000     0.173100000000     0.386240000000     0.0118768  
C        C      0.737700000000     0.291100000000     0.425940000000     0.0118768  
C        C      0.726200000000     0.478800000000     0.418350000000     0.0118768  
C        C      0.746500000000     0.614500000000     0.460750000000     0.0118768  
C        C      0.360800000000     0.786400000000     0.299870000000     0.0118768  
C        C      0.186700000000     0.746500000000     0.329010000000     0.0118768  
C        C      0.014300000000     0.786100000000     0.298800000000     0.0118768  
C        C      0.196400000000     0.038000000000     0.130070000000     0.0118768  
C        C      0.182600000000     0.910600000000     0.167480000000     0.0118768  
C        C      0.222700000000     0.673100000000     0.113760000000     0.0118768  
C        C      0.237700000000     0.791100000000     0.074060000000     0.0118768  
C        C      0.226200000000     0.978800000000     0.081650000000     0.0118768  
C        C      0.246500000000     0.114500000000     0.039250000000     0.0118768  
C        C      0.786400000000     0.360800000000     0.700130000000     0.0118768  
C        C      0.746500000000     0.186700000000     0.670990000000     0.0118768  
C        C      0.786100000000     0.014300000000     0.701200000000     0.0118768  
C        C      0.038000000000     0.196400000000     0.869930000000     0.0118768  
C        C      0.910600000000     0.182600000000     0.832520000000     0.0118768  
C        C      0.673100000000     0.222700000000     0.886240000000     0.0118768  
C        C      0.791100000000     0.237700000000     0.925940000000     0.0118768  
C        C      0.978800000000     0.226200000000     0.918350000000     0.0118768  
C        C      0.114500000000     0.246500000000     0.960750000000     0.0118768  
C        C      0.596200000000     0.596200000000     0.500000000000     0.0118768  
C        C      0.096200000000     0.096200000000     0.000000000000     0.0118768  
N        N      0.229700000000     0.696300000000     0.660890000000    -0.160155   
N        N      0.696300000000     0.229700000000     0.339110000000    -0.160155   
N        N      0.196300000000     0.729700000000     0.160890000000    -0.160155   
N        N      0.729700000000     0.196300000000     0.839110000000    -0.160155   
O        O      0.198700000000     0.884500000000     0.759070000000    -0.316935   
O        O      0.403000000000     0.971400000000     0.816650000000    -0.316935   
O        O      0.198970000000     0.491030000000     0.758330000000    -0.316935   
O        O      0.403350000000     0.405750000000     0.815310000000    -0.316935   
O        O      0.884500000000     0.198700000000     0.240930000000    -0.316935   
O        O      0.971400000000     0.403000000000     0.183350000000    -0.316935   
O        O      0.491030000000     0.198970000000     0.241670000000    -0.316935   
O        O      0.405750000000     0.403350000000     0.184690000000    -0.316935   
O        O      0.384500000000     0.698700000000     0.259070000000    -0.316935   
O        O      0.471400000000     0.903000000000     0.316650000000    -0.316935   
O        O      0.991030000000     0.698970000000     0.258330000000    -0.316935   
O        O      0.905750000000     0.903350000000     0.315310000000    -0.316935   
O        O      0.698700000000     0.384500000000     0.740930000000    -0.316935   
O        O      0.903000000000     0.471400000000     0.683350000000    -0.316935   
O        O      0.698970000000     0.991030000000     0.741670000000    -0.316935   
O        O      0.903350000000     0.905750000000     0.684690000000    -0.316935   


