data_KEXKAB_original

_audit_creation_method RASPA-1.0
_audit_creation_date 2022-1-31
_audit_author_name 'Felipe Lopes de Oliveira <felipe.lopes.oliveira@ibm.com>'

_cell_length_a    7.319
_cell_length_b    14.61
_cell_length_c    20.564
_cell_angle_alpha 90
_cell_angle_beta  90
_cell_angle_gamma 90
_cell_volume      2198.92

_symmetry_cell_setting          triclinic
_symmetry_space_group_name_Hall 'P 1'
_symmetry_space_group_name_H-M  'P 1'
_symmetry_Int_Tables_number     1

_symmetry_equiv_pos_as_xyz 'x,y,z'

loop_
_atom_site_label
_atom_site_type_symbol
_atom_site_fract_x
_atom_site_fract_y
_atom_site_fract_z
_atom_site_charge
Zn       Zn     0.249900000000     0.125160000000     0.121560000000     0.469608   
Zn       Zn     0.762600000000     0.374380000000     0.045370000000     0.469608   
Zn       Zn     0.750100000000     0.874840000000     0.621560000000     0.469608   
Zn       Zn     0.237400000000     0.625620000000     0.545370000000     0.469608   
Zn       Zn     0.250100000000     0.625160000000     0.121560000000     0.469608   
Zn       Zn     0.737400000000     0.874380000000     0.045370000000     0.469608   
Zn       Zn     0.749900000000     0.374840000000     0.621560000000     0.469608   
Zn       Zn     0.262600000000     0.125620000000     0.545370000000     0.469608   
H        H      0.259000000000     0.272400000000     0.943200000000     0.115494   
H        H      0.261800000000     0.169300000000     0.964400000000     0.115494   
H        H      0.748300000000     0.523800000000     0.222500000000     0.115494   
H        H      0.754100000000     0.420900000000     0.200800000000     0.115494   
H        H      0.114300000000     0.135000000000     0.263700000000     0.115494   
H        H      0.093200000000     0.232300000000     0.350900000000     0.115494   
H        H      0.288800000000     0.430300000000     0.235300000000     0.115494   
H        H      0.309700000000     0.325300000000     0.154100000000     0.115494   
H        H      0.119100000000     0.522900000000     0.312100000000     0.115494   
H        H      0.138200000000     0.619800000000     0.398600000000     0.115494   
H        H      0.281600000000     0.418100000000     0.513900000000     0.115494   
H        H      0.264500000000     0.316700000000     0.429200000000     0.115494   
H        H      0.741000000000     0.727600000000     0.443200000000     0.115494   
H        H      0.738200000000     0.830700000000     0.464400000000     0.115494   
H        H      0.251700000000     0.476200000000     0.722500000000     0.115494   
H        H      0.245900000000     0.579100000000     0.700800000000     0.115494   
H        H      0.885700000000     0.865000000000     0.763700000000     0.115494   
H        H      0.906800000000     0.767700000000     0.850900000000     0.115494   
H        H      0.711200000000     0.569700000000     0.735300000000     0.115494   
H        H      0.690300000000     0.674700000000     0.654100000000     0.115494   
H        H      0.880900000000     0.477100000000     0.812100000000     0.115494   
H        H      0.861800000000     0.380200000000     0.898600000000     0.115494   
H        H      0.718400000000     0.581900000000     0.013900000000     0.115494   
H        H      0.735500000000     0.683300000000     0.929200000000     0.115494   
H        H      0.241000000000     0.772400000000     0.943200000000     0.115494   
H        H      0.238200000000     0.669300000000     0.964400000000     0.115494   
H        H      0.751700000000     0.023800000000     0.222500000000     0.115494   
H        H      0.745900000000     0.920900000000     0.200800000000     0.115494   
H        H      0.385700000000     0.635000000000     0.263700000000     0.115494   
H        H      0.406800000000     0.732300000000     0.350900000000     0.115494   
H        H      0.211200000000     0.930300000000     0.235300000000     0.115494   
H        H      0.190300000000     0.825300000000     0.154100000000     0.115494   
H        H      0.380900000000     0.022900000000     0.312100000000     0.115494   
H        H      0.361800000000     0.119800000000     0.398600000000     0.115494   
H        H      0.218400000000     0.918100000000     0.513900000000     0.115494   
H        H      0.235500000000     0.816700000000     0.429200000000     0.115494   
H        H      0.759000000000     0.227600000000     0.443200000000     0.115494   
H        H      0.761800000000     0.330700000000     0.464400000000     0.115494   
H        H      0.248300000000     0.976200000000     0.722500000000     0.115494   
H        H      0.254100000000     0.079100000000     0.700800000000     0.115494   
H        H      0.614300000000     0.365000000000     0.763700000000     0.115494   
H        H      0.593200000000     0.267700000000     0.850900000000     0.115494   
H        H      0.788800000000     0.069700000000     0.735300000000     0.115494   
H        H      0.809700000000     0.174700000000     0.654100000000     0.115494   
H        H      0.619100000000     0.977100000000     0.812100000000     0.115494   
H        H      0.638200000000     0.880200000000     0.898600000000     0.115494   
H        H      0.781600000000     0.081900000000     0.013900000000     0.115494   
H        H      0.764500000000     0.183300000000     0.929200000000     0.115494   
C        C      0.433700000000     0.249500000000     0.021000000000     0.0362538  
C        C      0.259400000000     0.231700000000     0.980500000000     0.0362538  
C        C      0.082700000000     0.246600000000     0.019900000000     0.0362538  
C        C      0.584400000000     0.497800000000     0.145000000000     0.0362538  
C        C      0.752200000000     0.483500000000     0.185000000000     0.0362538  
C        C      0.922900000000     0.501500000000     0.147600000000     0.0362538  
C        C      0.153100000000     0.195200000000     0.258600000000     0.0362538  
C        C      0.138700000000     0.253300000000     0.311400000000     0.0362538  
C        C      0.193500000000     0.343900000000     0.304300000000     0.0362538  
C        C      0.255200000000     0.369900000000     0.243100000000     0.0362538  
C        C      0.266300000000     0.306600000000     0.194500000000     0.0362538  
C        C      0.194000000000     0.407900000000     0.360200000000     0.0362538  
C        C      0.153900000000     0.500400000000     0.352500000000     0.0362538  
C        C      0.165800000000     0.558300000000     0.404900000000     0.0362538  
C        C      0.250100000000     0.439800000000     0.472900000000     0.0362538  
C        C      0.240100000000     0.378300000000     0.421900000000     0.0362538  
C        C      0.566300000000     0.750500000000     0.521000000000     0.0362538  
C        C      0.740600000000     0.768300000000     0.480500000000     0.0362538  
C        C      0.917300000000     0.753400000000     0.519900000000     0.0362538  
C        C      0.415600000000     0.502200000000     0.645000000000     0.0362538  
C        C      0.247800000000     0.516500000000     0.685000000000     0.0362538  
C        C      0.077100000000     0.498500000000     0.647600000000     0.0362538  
C        C      0.846900000000     0.804800000000     0.758600000000     0.0362538  
C        C      0.861300000000     0.746700000000     0.811400000000     0.0362538  
C        C      0.806500000000     0.656100000000     0.804300000000     0.0362538  
C        C      0.744800000000     0.630100000000     0.743100000000     0.0362538  
C        C      0.733700000000     0.693400000000     0.694500000000     0.0362538  
C        C      0.806000000000     0.592100000000     0.860200000000     0.0362538  
C        C      0.846100000000     0.499600000000     0.852500000000     0.0362538  
C        C      0.834200000000     0.441700000000     0.904900000000     0.0362538  
C        C      0.749900000000     0.560200000000     0.972900000000     0.0362538  
C        C      0.759900000000     0.621700000000     0.921900000000     0.0362538  
C        C      0.066300000000     0.749500000000     0.021000000000     0.0362538  
C        C      0.240600000000     0.731700000000     0.980500000000     0.0362538  
C        C      0.417300000000     0.746600000000     0.019900000000     0.0362538  
C        C      0.915600000000     0.997800000000     0.145000000000     0.0362538  
C        C      0.747800000000     0.983500000000     0.185000000000     0.0362538  
C        C      0.577100000000     0.001500000000     0.147600000000     0.0362538  
C        C      0.346900000000     0.695200000000     0.258600000000     0.0362538  
C        C      0.361300000000     0.753300000000     0.311400000000     0.0362538  
C        C      0.306500000000     0.843900000000     0.304300000000     0.0362538  
C        C      0.244800000000     0.869900000000     0.243100000000     0.0362538  
C        C      0.233700000000     0.806600000000     0.194500000000     0.0362538  
C        C      0.306000000000     0.907900000000     0.360200000000     0.0362538  
C        C      0.346100000000     0.000400000000     0.352500000000     0.0362538  
C        C      0.334200000000     0.058300000000     0.404900000000     0.0362538  
C        C      0.249900000000     0.939800000000     0.472900000000     0.0362538  
C        C      0.259900000000     0.878300000000     0.421900000000     0.0362538  
C        C      0.933700000000     0.250500000000     0.521000000000     0.0362538  
C        C      0.759400000000     0.268300000000     0.480500000000     0.0362538  
C        C      0.582700000000     0.253400000000     0.519900000000     0.0362538  
C        C      0.084400000000     0.002200000000     0.645000000000     0.0362538  
C        C      0.252200000000     0.016500000000     0.685000000000     0.0362538  
C        C      0.422900000000     0.998500000000     0.647600000000     0.0362538  
C        C      0.653100000000     0.304800000000     0.758600000000     0.0362538  
C        C      0.638700000000     0.246700000000     0.811400000000     0.0362538  
C        C      0.693500000000     0.156100000000     0.804300000000     0.0362538  
C        C      0.755200000000     0.130100000000     0.743100000000     0.0362538  
C        C      0.766300000000     0.193400000000     0.694500000000     0.0362538  
C        C      0.694000000000     0.092100000000     0.860200000000     0.0362538  
C        C      0.653900000000     0.999600000000     0.852500000000     0.0362538  
C        C      0.665800000000     0.941700000000     0.904900000000     0.0362538  
C        C      0.750100000000     0.060200000000     0.972900000000     0.0362538  
C        C      0.740100000000     0.121700000000     0.921900000000     0.0362538  
N        N      0.218300000000     0.219900000000     0.202000000000    -0.144771   
N        N      0.215700000000     0.530800000000     0.465600000000    -0.144771   
N        N      0.781700000000     0.780100000000     0.702000000000    -0.144771   
N        N      0.784300000000     0.469200000000     0.965600000000    -0.144771   
N        N      0.281700000000     0.719900000000     0.202000000000    -0.144771   
N        N      0.284300000000     0.030800000000     0.465600000000    -0.144771   
N        N      0.718300000000     0.280100000000     0.702000000000    -0.144771   
N        N      0.715700000000     0.969200000000     0.965600000000    -0.144771   
O        O      0.448700000000     0.208200000000     0.074600000000    -0.326958   
O        O      0.546500000000     0.304600000000     0.998800000000    -0.326958   
O        O      0.057400000000     0.201100000000     0.070300000000    -0.326958   
O        O      0.975300000000     0.305300000000     0.998900000000    -0.326958   
O        O      0.565000000000     0.455800000000     0.091200000000    -0.326958   
O        O      0.461600000000     0.550000000000     0.167900000000    -0.326958   
O        O      0.955100000000     0.455900000000     0.096700000000    -0.326958   
O        O      0.033500000000     0.561000000000     0.170600000000    -0.326958   
O        O      0.551300000000     0.791800000000     0.574600000000    -0.326958   
O        O      0.453500000000     0.695400000000     0.498800000000    -0.326958   
O        O      0.942600000000     0.798900000000     0.570300000000    -0.326958   
O        O      0.024700000000     0.694700000000     0.498900000000    -0.326958   
O        O      0.435000000000     0.544200000000     0.591200000000    -0.326958   
O        O      0.538400000000     0.450000000000     0.667900000000    -0.326958   
O        O      0.044900000000     0.544100000000     0.596700000000    -0.326958   
O        O      0.966500000000     0.439000000000     0.670600000000    -0.326958   
O        O      0.051300000000     0.708200000000     0.074600000000    -0.326958   
O        O      0.953500000000     0.804600000000     0.998800000000    -0.326958   
O        O      0.442600000000     0.701100000000     0.070300000000    -0.326958   
O        O      0.524700000000     0.805300000000     0.998900000000    -0.326958   
O        O      0.935000000000     0.955800000000     0.091200000000    -0.326958   
O        O      0.038400000000     0.050000000000     0.167900000000    -0.326958   
O        O      0.544900000000     0.955900000000     0.096700000000    -0.326958   
O        O      0.466500000000     0.061000000000     0.170600000000    -0.326958   
O        O      0.948700000000     0.291800000000     0.574600000000    -0.326958   
O        O      0.046500000000     0.195400000000     0.498800000000    -0.326958   
O        O      0.557400000000     0.298900000000     0.570300000000    -0.326958   
O        O      0.475300000000     0.194700000000     0.498900000000    -0.326958   
O        O      0.065000000000     0.044200000000     0.591200000000    -0.326958   
O        O      0.961600000000     0.950000000000     0.667900000000    -0.326958   
O        O      0.455100000000     0.044100000000     0.596700000000    -0.326958   
O        O      0.533500000000     0.939000000000     0.670600000000    -0.326958   


