data_KIDDOS_original

_audit_creation_method RASPA-1.0
_audit_creation_date 2022-1-28
_audit_author_name 'Felipe Lopes de Oliveira <felipe.lopes.oliveira@ibm.com>'

_cell_length_a    15.9531
_cell_length_b    15.9531
_cell_length_c    21.6398
_cell_angle_alpha 68.3704
_cell_angle_beta  68.3703
_cell_angle_gamma 60
_cell_volume      4315.92

_symmetry_cell_setting          triclinic
_symmetry_space_group_name_Hall 'P 1'
_symmetry_space_group_name_H-M  'P 1'
_symmetry_Int_Tables_number     1

_symmetry_equiv_pos_as_xyz 'x,y,z'

loop_
_atom_site_label
_atom_site_type_symbol
_atom_site_fract_x
_atom_site_fract_y
_atom_site_fract_z
_atom_site_charge
Zn       Zn     0.549800000000     0.805080000000     0.280800000000     0.444856   
Zn       Zn     0.805080000000     0.364320000000     0.280800000000     0.444856   
Zn       Zn     0.364320000000     0.549800000000     0.280800000000     0.444856   
Zn       Zn     0.694920000000     0.950200000000     0.219200000000     0.444856   
Zn       Zn     0.135680000000     0.694920000000     0.219200000000     0.444856   
Zn       Zn     0.950200000000     0.135680000000     0.219200000000     0.444856   
Zn       Zn     0.450200000000     0.194920000000     0.719200000000     0.444856   
Zn       Zn     0.194920000000     0.635680000000     0.719200000000     0.444856   
Zn       Zn     0.635680000000     0.450200000000     0.719200000000     0.444856   
Zn       Zn     0.305080000000     0.049800000000     0.780800000000     0.444856   
Zn       Zn     0.864320000000     0.305080000000     0.780800000000     0.444856   
Zn       Zn     0.049800000000     0.864320000000     0.780800000000     0.444856   
H        H      0.505200000000     0.974200000000     0.287400000000     0.080878   
H        H      0.287600000000     0.069700000000     0.466200000000     0.080878   
H        H      0.193500000000     0.030900000000     0.584700000000     0.080878   
H        H      0.456500000000     0.675300000000     0.409200000000     0.080878   
H        H      0.571500000000     0.630000000000     0.409500000000     0.080878   
H        H      0.409900000000     0.699900000000     0.306600000000     0.080878   
H        H      0.493600000000     0.668600000000     0.239700000000     0.080878   
H        H      0.974200000000     0.233200000000     0.287400000000     0.080878   
H        H      0.069700000000     0.176500000000     0.466200000000     0.080878   
H        H      0.030900000000     0.190900000000     0.584700000000     0.080878   
H        H      0.675300000000     0.459000000000     0.409200000000     0.080878   
H        H      0.630000000000     0.389000000000     0.409500000000     0.080878   
H        H      0.699900000000     0.583600000000     0.306600000000     0.080878   
H        H      0.668600000000     0.598100000000     0.239700000000     0.080878   
H        H      0.233200000000     0.505200000000     0.287400000000     0.080878   
H        H      0.176500000000     0.287600000000     0.466200000000     0.080878   
H        H      0.190900000000     0.193500000000     0.584700000000     0.080878   
H        H      0.459000000000     0.456500000000     0.409200000000     0.080878   
H        H      0.389000000000     0.571500000000     0.409500000000     0.080878   
H        H      0.583600000000     0.409900000000     0.306600000000     0.080878   
H        H      0.598100000000     0.493600000000     0.239700000000     0.080878   
H        H      0.525800000000     0.994800000000     0.212600000000     0.080878   
H        H      0.430300000000     0.212400000000     0.033800000000     0.080878   
H        H      0.469100000000     0.306500000000     0.915300000000     0.080878   
H        H      0.824700000000     0.043500000000     0.090800000000     0.080878   
H        H      0.870000000000     0.928500000000     0.090500000000     0.080878   
H        H      0.800100000000     0.090100000000     0.193400000000     0.080878   
H        H      0.831400000000     0.006400000000     0.260300000000     0.080878   
H        H      0.266800000000     0.525800000000     0.212600000000     0.080878   
H        H      0.323500000000     0.430300000000     0.033800000000     0.080878   
H        H      0.309100000000     0.469100000000     0.915300000000     0.080878   
H        H      0.041000000000     0.824700000000     0.090800000000     0.080878   
H        H      0.111000000000     0.870000000000     0.090500000000     0.080878   
H        H      0.916400000000     0.800100000000     0.193400000000     0.080878   
H        H      0.901900000000     0.831400000000     0.260300000000     0.080878   
H        H      0.994800000000     0.266800000000     0.212600000000     0.080878   
H        H      0.212400000000     0.323500000000     0.033800000000     0.080878   
H        H      0.306500000000     0.309100000000     0.915300000000     0.080878   
H        H      0.043500000000     0.041000000000     0.090800000000     0.080878   
H        H      0.928500000000     0.111000000000     0.090500000000     0.080878   
H        H      0.090100000000     0.916400000000     0.193400000000     0.080878   
H        H      0.006400000000     0.901900000000     0.260300000000     0.080878   
H        H      0.494800000000     0.025800000000     0.712600000000     0.080878   
H        H      0.712400000000     0.930300000000     0.533800000000     0.080878   
H        H      0.806500000000     0.969100000000     0.415300000000     0.080878   
H        H      0.543500000000     0.324700000000     0.590800000000     0.080878   
H        H      0.428500000000     0.370000000000     0.590500000000     0.080878   
H        H      0.590100000000     0.300100000000     0.693400000000     0.080878   
H        H      0.506400000000     0.331400000000     0.760300000000     0.080878   
H        H      0.025800000000     0.766800000000     0.712600000000     0.080878   
H        H      0.930300000000     0.823500000000     0.533800000000     0.080878   
H        H      0.969100000000     0.809100000000     0.415300000000     0.080878   
H        H      0.324700000000     0.541000000000     0.590800000000     0.080878   
H        H      0.370000000000     0.611000000000     0.590500000000     0.080878   
H        H      0.300100000000     0.416400000000     0.693400000000     0.080878   
H        H      0.331400000000     0.401900000000     0.760300000000     0.080878   
H        H      0.766800000000     0.494800000000     0.712600000000     0.080878   
H        H      0.823500000000     0.712400000000     0.533800000000     0.080878   
H        H      0.809100000000     0.806500000000     0.415300000000     0.080878   
H        H      0.541000000000     0.543500000000     0.590800000000     0.080878   
H        H      0.611000000000     0.428500000000     0.590500000000     0.080878   
H        H      0.416400000000     0.590100000000     0.693400000000     0.080878   
H        H      0.401900000000     0.506400000000     0.760300000000     0.080878   
H        H      0.474200000000     0.005200000000     0.787400000000     0.080878   
H        H      0.569700000000     0.787600000000     0.966200000000     0.080878   
H        H      0.530900000000     0.693500000000     0.084700000000     0.080878   
H        H      0.175300000000     0.956500000000     0.909200000000     0.080878   
H        H      0.130000000000     0.071500000000     0.909500000000     0.080878   
H        H      0.199900000000     0.909900000000     0.806600000000     0.080878   
H        H      0.168600000000     0.993600000000     0.739700000000     0.080878   
H        H      0.733200000000     0.474200000000     0.787400000000     0.080878   
H        H      0.676500000000     0.569700000000     0.966200000000     0.080878   
H        H      0.690900000000     0.530900000000     0.084700000000     0.080878   
H        H      0.959000000000     0.175300000000     0.909200000000     0.080878   
H        H      0.889000000000     0.130000000000     0.909500000000     0.080878   
H        H      0.083600000000     0.199900000000     0.806600000000     0.080878   
H        H      0.098100000000     0.168600000000     0.739700000000     0.080878   
H        H      0.005200000000     0.733200000000     0.787400000000     0.080878   
H        H      0.787600000000     0.676500000000     0.966200000000     0.080878   
H        H      0.693500000000     0.690900000000     0.084700000000     0.080878   
H        H      0.956500000000     0.959000000000     0.909200000000     0.080878   
H        H      0.071500000000     0.889000000000     0.909500000000     0.080878   
H        H      0.909900000000     0.083600000000     0.806600000000     0.080878   
H        H      0.993600000000     0.098100000000     0.739700000000     0.080878   
C        C      0.411440000000     0.920840000000     0.391680000000     0.0594522  
C        C      0.345590000000     0.924490000000     0.461730000000     0.0594522  
C        C      0.290240000000     0.005240000000     0.489780000000     0.0594522  
C        C      0.236950000000     0.982950000000     0.557850000000     0.0594522  
C        C      0.255000000000     0.884600000000     0.580500000000     0.0594522  
C        C      0.215060000000     0.833560000000     0.649920000000     0.0594522  
C        C      0.524140000000     0.627340000000     0.391680000000     0.0594522  
C        C      0.477510000000     0.650910000000     0.290370000000     0.0594522  
C        C      0.920840000000     0.276040000000     0.391680000000     0.0594522  
C        C      0.924490000000     0.268190000000     0.461730000000     0.0594522  
C        C      0.005240000000     0.214740000000     0.489780000000     0.0594522  
C        C      0.982950000000     0.222250000000     0.557850000000     0.0594522  
C        C      0.884600000000     0.279900000000     0.580500000000     0.0594522  
C        C      0.833560000000     0.301460000000     0.649920000000     0.0594522  
C        C      0.627340000000     0.456840000000     0.391680000000     0.0594522  
C        C      0.650910000000     0.581210000000     0.290370000000     0.0594522  
C        C      0.276040000000     0.411440000000     0.391680000000     0.0594522  
C        C      0.268190000000     0.345590000000     0.461730000000     0.0594522  
C        C      0.214740000000     0.290240000000     0.489780000000     0.0594522  
C        C      0.222250000000     0.236950000000     0.557850000000     0.0594522  
C        C      0.279900000000     0.255000000000     0.580500000000     0.0594522  
C        C      0.301460000000     0.215060000000     0.649920000000     0.0594522  
C        C      0.456840000000     0.524140000000     0.391680000000     0.0594522  
C        C      0.581210000000     0.477510000000     0.290370000000     0.0594522  
C        C      0.579160000000     0.088560000000     0.108320000000     0.0594522  
C        C      0.575510000000     0.154410000000     0.038270000000     0.0594522  
C        C      0.494760000000     0.209760000000     0.010220000000     0.0594522  
C        C      0.517050000000     0.263050000000     0.942150000000     0.0594522  
C        C      0.615400000000     0.245000000000     0.919500000000     0.0594522  
C        C      0.666440000000     0.284940000000     0.850080000000     0.0594522  
C        C      0.872660000000     0.975860000000     0.108320000000     0.0594522  
C        C      0.849090000000     0.022490000000     0.209630000000     0.0594522  
C        C      0.223960000000     0.579160000000     0.108320000000     0.0594522  
C        C      0.231810000000     0.575510000000     0.038270000000     0.0594522  
C        C      0.285260000000     0.494760000000     0.010220000000     0.0594522  
C        C      0.277750000000     0.517050000000     0.942150000000     0.0594522  
C        C      0.220100000000     0.615400000000     0.919500000000     0.0594522  
C        C      0.198540000000     0.666440000000     0.850080000000     0.0594522  
C        C      0.043160000000     0.872660000000     0.108320000000     0.0594522  
C        C      0.918790000000     0.849090000000     0.209630000000     0.0594522  
C        C      0.088560000000     0.223960000000     0.108320000000     0.0594522  
C        C      0.154410000000     0.231810000000     0.038270000000     0.0594522  
C        C      0.209760000000     0.285260000000     0.010220000000     0.0594522  
C        C      0.263050000000     0.277750000000     0.942150000000     0.0594522  
C        C      0.245000000000     0.220100000000     0.919500000000     0.0594522  
C        C      0.284940000000     0.198540000000     0.850080000000     0.0594522  
C        C      0.975860000000     0.043160000000     0.108320000000     0.0594522  
C        C      0.022490000000     0.918790000000     0.209630000000     0.0594522  
C        C      0.588560000000     0.079160000000     0.608320000000     0.0594522  
C        C      0.654410000000     0.075510000000     0.538270000000     0.0594522  
C        C      0.709760000000     0.994760000000     0.510220000000     0.0594522  
C        C      0.763050000000     0.017050000000     0.442150000000     0.0594522  
C        C      0.745000000000     0.115400000000     0.419500000000     0.0594522  
C        C      0.784940000000     0.166440000000     0.350080000000     0.0594522  
C        C      0.475860000000     0.372660000000     0.608320000000     0.0594522  
C        C      0.522490000000     0.349090000000     0.709630000000     0.0594522  
C        C      0.079160000000     0.723960000000     0.608320000000     0.0594522  
C        C      0.075510000000     0.731810000000     0.538270000000     0.0594522  
C        C      0.994760000000     0.785260000000     0.510220000000     0.0594522  
C        C      0.017050000000     0.777750000000     0.442150000000     0.0594522  
C        C      0.115400000000     0.720100000000     0.419500000000     0.0594522  
C        C      0.166440000000     0.698540000000     0.350080000000     0.0594522  
C        C      0.372660000000     0.543160000000     0.608320000000     0.0594522  
C        C      0.349090000000     0.418790000000     0.709630000000     0.0594522  
C        C      0.723960000000     0.588560000000     0.608320000000     0.0594522  
C        C      0.731810000000     0.654410000000     0.538270000000     0.0594522  
C        C      0.785260000000     0.709760000000     0.510220000000     0.0594522  
C        C      0.777750000000     0.763050000000     0.442150000000     0.0594522  
C        C      0.720100000000     0.745000000000     0.419500000000     0.0594522  
C        C      0.698540000000     0.784940000000     0.350080000000     0.0594522  
C        C      0.543160000000     0.475860000000     0.608320000000     0.0594522  
C        C      0.418790000000     0.522490000000     0.709630000000     0.0594522  
C        C      0.420840000000     0.911440000000     0.891680000000     0.0594522  
C        C      0.424490000000     0.845590000000     0.961730000000     0.0594522  
C        C      0.505240000000     0.790240000000     0.989780000000     0.0594522  
C        C      0.482950000000     0.736950000000     0.057850000000     0.0594522  
C        C      0.384600000000     0.755000000000     0.080500000000     0.0594522  
C        C      0.333560000000     0.715060000000     0.149920000000     0.0594522  
C        C      0.127340000000     0.024140000000     0.891680000000     0.0594522  
C        C      0.150910000000     0.977510000000     0.790370000000     0.0594522  
C        C      0.776040000000     0.420840000000     0.891680000000     0.0594522  
C        C      0.768190000000     0.424490000000     0.961730000000     0.0594522  
C        C      0.714740000000     0.505240000000     0.989780000000     0.0594522  
C        C      0.722250000000     0.482950000000     0.057850000000     0.0594522  
C        C      0.779900000000     0.384600000000     0.080500000000     0.0594522  
C        C      0.801460000000     0.333560000000     0.149920000000     0.0594522  
C        C      0.956840000000     0.127340000000     0.891680000000     0.0594522  
C        C      0.081210000000     0.150910000000     0.790370000000     0.0594522  
C        C      0.911440000000     0.776040000000     0.891680000000     0.0594522  
C        C      0.845590000000     0.768190000000     0.961730000000     0.0594522  
C        C      0.790240000000     0.714740000000     0.989780000000     0.0594522  
C        C      0.736950000000     0.722250000000     0.057850000000     0.0594522  
C        C      0.755000000000     0.779900000000     0.080500000000     0.0594522  
C        C      0.715060000000     0.801460000000     0.149920000000     0.0594522  
C        C      0.024140000000     0.956840000000     0.891680000000     0.0594522  
C        C      0.977510000000     0.081210000000     0.790370000000     0.0594522  
S        S      0.334390000000     0.819420000000     0.518220000000     0.0658474  
S        S      0.819420000000     0.327970000000     0.518220000000     0.0658474  
S        S      0.327970000000     0.334390000000     0.518220000000     0.0658474  
S        S      0.680580000000     0.165610000000     0.981780000000     0.0658474  
S        S      0.172030000000     0.680580000000     0.981780000000     0.0658474  
S        S      0.165610000000     0.172030000000     0.981780000000     0.0658474  
S        S      0.665610000000     0.180580000000     0.481780000000     0.0658474  
S        S      0.180580000000     0.672030000000     0.481780000000     0.0658474  
S        S      0.672030000000     0.665610000000     0.481780000000     0.0658474  
S        S      0.319420000000     0.834390000000     0.018220000000     0.0658474  
S        S      0.827970000000     0.319420000000     0.018220000000     0.0658474  
S        S      0.834390000000     0.827970000000     0.018220000000     0.0658474  
N        N      0.549750000000     0.656350000000     0.314850000000    -0.113666   
N        N      0.656350000000     0.479050000000     0.314850000000    -0.113666   
N        N      0.479050000000     0.549750000000     0.314850000000    -0.113666   
N        N      0.843650000000     0.950250000000     0.185150000000    -0.113666   
N        N      0.020950000000     0.843650000000     0.185150000000    -0.113666   
N        N      0.950250000000     0.020950000000     0.185150000000    -0.113666   
N        N      0.450250000000     0.343650000000     0.685150000000    -0.113666   
N        N      0.343650000000     0.520950000000     0.685150000000    -0.113666   
N        N      0.520950000000     0.450250000000     0.685150000000    -0.113666   
N        N      0.156350000000     0.049750000000     0.814850000000    -0.113666   
N        N      0.979050000000     0.156350000000     0.814850000000    -0.113666   
N        N      0.049750000000     0.979050000000     0.814850000000    -0.113666   
N        N      0.527980000000     0.527980000000     0.416060000000    -0.113666   
N        N      0.972020000000     0.972020000000     0.083940000000    -0.113666   
N        N      0.472020000000     0.472020000000     0.583940000000    -0.113666   
N        N      0.027980000000     0.027980000000     0.916060000000    -0.113666   
O        O      0.440470000000     0.845380000000     0.369780000000    -0.311314   
O        O      0.431620000000     0.993820000000     0.360540000000    -0.311314   
O        O      0.148690000000     0.889460000000     0.688890000000    -0.311314   
O        O      0.251350000000     0.740420000000     0.662190000000    -0.311314   
O        O      0.845380000000     0.344370000000     0.369780000000    -0.311314   
O        O      0.993820000000     0.214020000000     0.360540000000    -0.311314   
O        O      0.889460000000     0.272960000000     0.688890000000    -0.311314   
O        O      0.740420000000     0.346040000000     0.662190000000    -0.311314   
O        O      0.344370000000     0.440470000000     0.369780000000    -0.311314   
O        O      0.214020000000     0.431620000000     0.360540000000    -0.311314   
O        O      0.272960000000     0.148690000000     0.688890000000    -0.311314   
O        O      0.346040000000     0.251350000000     0.662190000000    -0.311314   
O        O      0.654620000000     0.059530000000     0.130220000000    -0.311314   
O        O      0.506180000000     0.068380000000     0.139460000000    -0.311314   
O        O      0.610540000000     0.351310000000     0.811110000000    -0.311314   
O        O      0.759580000000     0.248650000000     0.837810000000    -0.311314   
O        O      0.155630000000     0.654620000000     0.130220000000    -0.311314   
O        O      0.285980000000     0.506180000000     0.139460000000    -0.311314   
O        O      0.227040000000     0.610540000000     0.811110000000    -0.311314   
O        O      0.153960000000     0.759580000000     0.837810000000    -0.311314   
O        O      0.059530000000     0.155630000000     0.130220000000    -0.311314   
O        O      0.068380000000     0.285980000000     0.139460000000    -0.311314   
O        O      0.351310000000     0.227040000000     0.811110000000    -0.311314   
O        O      0.248650000000     0.153960000000     0.837810000000    -0.311314   
O        O      0.559530000000     0.154620000000     0.630220000000    -0.311314   
O        O      0.568380000000     0.006180000000     0.639460000000    -0.311314   
O        O      0.851310000000     0.110540000000     0.311110000000    -0.311314   
O        O      0.748650000000     0.259580000000     0.337810000000    -0.311314   
O        O      0.154620000000     0.655630000000     0.630220000000    -0.311314   
O        O      0.006180000000     0.785980000000     0.639460000000    -0.311314   
O        O      0.110540000000     0.727040000000     0.311110000000    -0.311314   
O        O      0.259580000000     0.653960000000     0.337810000000    -0.311314   
O        O      0.655630000000     0.559530000000     0.630220000000    -0.311314   
O        O      0.785980000000     0.568380000000     0.639460000000    -0.311314   
O        O      0.727040000000     0.851310000000     0.311110000000    -0.311314   
O        O      0.653960000000     0.748650000000     0.337810000000    -0.311314   
O        O      0.345380000000     0.940470000000     0.869780000000    -0.311314   
O        O      0.493820000000     0.931620000000     0.860540000000    -0.311314   
O        O      0.389460000000     0.648690000000     0.188890000000    -0.311314   
O        O      0.240420000000     0.751350000000     0.162190000000    -0.311314   
O        O      0.844370000000     0.345380000000     0.869780000000    -0.311314   
O        O      0.714020000000     0.493820000000     0.860540000000    -0.311314   
O        O      0.772960000000     0.389460000000     0.188890000000    -0.311314   
O        O      0.846040000000     0.240420000000     0.162190000000    -0.311314   
O        O      0.940470000000     0.844370000000     0.869780000000    -0.311314   
O        O      0.931620000000     0.714020000000     0.860540000000    -0.311314   
O        O      0.648690000000     0.772960000000     0.188890000000    -0.311314   
O        O      0.751350000000     0.846040000000     0.162190000000    -0.311314   
O        O      0.552350000000     0.947650000000     0.250000000000    -0.311314   
O        O      0.947650000000     0.250000000000     0.250000000000    -0.311314   
O        O      0.250000000000     0.552350000000     0.250000000000    -0.311314   
O        O      0.447650000000     0.052350000000     0.750000000000    -0.311314   
O        O      0.052350000000     0.750000000000     0.750000000000    -0.311314   
O        O      0.750000000000     0.447650000000     0.750000000000    -0.311314   


