data_KINKAV_original

_audit_creation_method RASPA-1.0
_audit_creation_date 2022-1-28
_audit_author_name 'Felipe Lopes de Oliveira <felipe.lopes.oliveira@ibm.com>'

_cell_length_a    10.324
_cell_length_b    12.813
_cell_length_c    15.526
_cell_angle_alpha 90
_cell_angle_beta  104.633
_cell_angle_gamma 90
_cell_volume      1987.18

_symmetry_cell_setting          triclinic
_symmetry_space_group_name_Hall 'P 1'
_symmetry_space_group_name_H-M  'P 1'
_symmetry_Int_Tables_number     1

_symmetry_equiv_pos_as_xyz 'x,y,z'

loop_
_atom_site_label
_atom_site_type_symbol
_atom_site_fract_x
_atom_site_fract_y
_atom_site_fract_z
_atom_site_charge
Zn       Zn     0.750000000000     0.812320000000     0.500000000000     0.431992   
Zn       Zn     0.250000000000     0.187680000000     0.500000000000     0.431992   
H        H      0.488800000000     0.837500000000     0.339500000000     0.0886653  
H        H      0.766900000000     0.047700000000     0.417600000000     0.0886653  
H        H      0.602200000000     0.123300000000     0.291100000000     0.0886653  
H        H      0.342600000000     0.841900000000     0.201300000000     0.0886653  
H        H      0.159000000000     0.861700000000     0.078900000000     0.0886653  
H        H      0.181800000000     0.168600000000     0.107900000000     0.0886653  
H        H      0.370100000000     0.151700000000     0.224000000000     0.0886653  
H        H      0.042400000000     0.695800000000     0.342400000000     0.0886653  
H        H      0.102500000000     0.626700000000     0.220900000000     0.0886653  
H        H      0.727200000000     0.527000000000     0.119800000000     0.0886653  
H        H      0.665100000000     0.594800000000     0.240700000000     0.0886653  
H        H      0.870700000000     0.373900000000     0.151200000000     0.0886653  
H        H      0.962900000000     0.291500000000     0.121400000000     0.0886653  
H        H      0.817200000000     0.310900000000     0.062800000000     0.0886653  
H        H      0.020500000000     0.672500000000     0.042900000000     0.0886653  
H        H      0.011200000000     0.837500000000     0.660500000000     0.0886653  
H        H      0.733100000000     0.047700000000     0.582400000000     0.0886653  
H        H      0.897800000000     0.123300000000     0.708900000000     0.0886653  
H        H      0.157400000000     0.841900000000     0.798700000000     0.0886653  
H        H      0.341000000000     0.861700000000     0.921100000000     0.0886653  
H        H      0.318200000000     0.168600000000     0.892100000000     0.0886653  
H        H      0.129900000000     0.151700000000     0.776000000000     0.0886653  
H        H      0.457600000000     0.695800000000     0.657600000000     0.0886653  
H        H      0.397500000000     0.626700000000     0.779100000000     0.0886653  
H        H      0.772800000000     0.527000000000     0.880200000000     0.0886653  
H        H      0.834900000000     0.594800000000     0.759300000000     0.0886653  
H        H      0.629300000000     0.373900000000     0.848800000000     0.0886653  
H        H      0.537100000000     0.291500000000     0.878600000000     0.0886653  
H        H      0.682800000000     0.310900000000     0.937200000000     0.0886653  
H        H      0.479500000000     0.672500000000     0.957100000000     0.0886653  
H        H      0.511200000000     0.162500000000     0.660500000000     0.0886653  
H        H      0.233100000000     0.952300000000     0.582400000000     0.0886653  
H        H      0.397800000000     0.876700000000     0.708900000000     0.0886653  
H        H      0.657400000000     0.158100000000     0.798700000000     0.0886653  
H        H      0.841000000000     0.138300000000     0.921100000000     0.0886653  
H        H      0.818200000000     0.831400000000     0.892100000000     0.0886653  
H        H      0.629900000000     0.848300000000     0.776000000000     0.0886653  
H        H      0.957600000000     0.304200000000     0.657600000000     0.0886653  
H        H      0.897500000000     0.373300000000     0.779100000000     0.0886653  
H        H      0.272800000000     0.473000000000     0.880200000000     0.0886653  
H        H      0.334900000000     0.405200000000     0.759300000000     0.0886653  
H        H      0.129300000000     0.626100000000     0.848800000000     0.0886653  
H        H      0.037100000000     0.708500000000     0.878600000000     0.0886653  
H        H      0.182800000000     0.689100000000     0.937200000000     0.0886653  
H        H      0.979500000000     0.327500000000     0.957100000000     0.0886653  
H        H      0.988800000000     0.162500000000     0.339500000000     0.0886653  
H        H      0.266900000000     0.952300000000     0.417600000000     0.0886653  
H        H      0.102200000000     0.876700000000     0.291100000000     0.0886653  
H        H      0.842600000000     0.158100000000     0.201300000000     0.0886653  
H        H      0.659000000000     0.138300000000     0.078900000000     0.0886653  
H        H      0.681800000000     0.831400000000     0.107900000000     0.0886653  
H        H      0.870100000000     0.848300000000     0.224000000000     0.0886653  
H        H      0.542400000000     0.304200000000     0.342400000000     0.0886653  
H        H      0.602500000000     0.373300000000     0.220900000000     0.0886653  
H        H      0.227200000000     0.473000000000     0.119800000000     0.0886653  
H        H      0.165100000000     0.405200000000     0.240700000000     0.0886653  
H        H      0.370700000000     0.626100000000     0.151200000000     0.0886653  
H        H      0.462900000000     0.708500000000     0.121400000000     0.0886653  
H        H      0.317200000000     0.689100000000     0.062800000000     0.0886653  
H        H      0.520500000000     0.327500000000     0.042900000000     0.0886653  
C        C      0.533000000000     0.901400000000     0.347500000000    -0.0310542  
C        C      0.686700000000     0.016600000000     0.388000000000    -0.0310542  
C        C      0.596700000000     0.059500000000     0.318500000000    -0.0310542  
C        C      0.375100000000     0.995400000000     0.224300000000    -0.0310542  
C        C      0.311400000000     0.908200000000     0.182100000000    -0.0310542  
C        C      0.199700000000     0.919900000000     0.110200000000    -0.0310542  
C        C      0.150600000000     0.017500000000     0.086000000000    -0.0310542  
C        C      0.214200000000     0.102500000000     0.126800000000    -0.0310542  
C        C      0.326800000000     0.092500000000     0.196200000000    -0.0310542  
C        C      0.803300000000     0.703400000000     0.379500000000    -0.0310542  
C        C      0.845400000000     0.653800000000     0.303600000000    -0.0310542  
C        C      0.978800000000     0.662500000000     0.297700000000    -0.0310542  
C        C      0.014300000000     0.621000000000     0.224600000000    -0.0310542  
C        C      0.920900000000     0.570800000000     0.156300000000    -0.0310542  
C        C      0.790500000000     0.561300000000     0.164100000000    -0.0310542  
C        C      0.753000000000     0.602100000000     0.236700000000    -0.0310542  
C        C      0.959800000000     0.531500000000     0.075700000000    -0.0310542  
C        C      0.946600000000     0.426800000000     0.050000000000    -0.0310542  
C        C      0.894600000000     0.343200000000     0.101000000000    -0.0310542  
C        C      0.012500000000     0.602900000000     0.025500000000    -0.0310542  
C        C      0.967000000000     0.901400000000     0.652500000000    -0.0310542  
C        C      0.813300000000     0.016600000000     0.612000000000    -0.0310542  
C        C      0.903300000000     0.059500000000     0.681500000000    -0.0310542  
C        C      0.124900000000     0.995400000000     0.775700000000    -0.0310542  
C        C      0.188600000000     0.908200000000     0.817900000000    -0.0310542  
C        C      0.300300000000     0.919900000000     0.889800000000    -0.0310542  
C        C      0.349400000000     0.017500000000     0.914000000000    -0.0310542  
C        C      0.285800000000     0.102500000000     0.873200000000    -0.0310542  
C        C      0.173200000000     0.092500000000     0.803800000000    -0.0310542  
C        C      0.696700000000     0.703400000000     0.620500000000    -0.0310542  
C        C      0.654600000000     0.653800000000     0.696400000000    -0.0310542  
C        C      0.521200000000     0.662500000000     0.702300000000    -0.0310542  
C        C      0.485700000000     0.621000000000     0.775400000000    -0.0310542  
C        C      0.579100000000     0.570800000000     0.843700000000    -0.0310542  
C        C      0.709500000000     0.561300000000     0.835900000000    -0.0310542  
C        C      0.747000000000     0.602100000000     0.763300000000    -0.0310542  
C        C      0.540200000000     0.531500000000     0.924300000000    -0.0310542  
C        C      0.553400000000     0.426800000000     0.950000000000    -0.0310542  
C        C      0.605400000000     0.343200000000     0.899000000000    -0.0310542  
C        C      0.487500000000     0.602900000000     0.974500000000    -0.0310542  
C        C      0.467000000000     0.098600000000     0.652500000000    -0.0310542  
C        C      0.313300000000     0.983400000000     0.612000000000    -0.0310542  
C        C      0.403300000000     0.940500000000     0.681500000000    -0.0310542  
C        C      0.624900000000     0.004600000000     0.775700000000    -0.0310542  
C        C      0.688600000000     0.091800000000     0.817900000000    -0.0310542  
C        C      0.800300000000     0.080100000000     0.889800000000    -0.0310542  
C        C      0.849400000000     0.982500000000     0.914000000000    -0.0310542  
C        C      0.785800000000     0.897500000000     0.873200000000    -0.0310542  
C        C      0.673200000000     0.907500000000     0.803800000000    -0.0310542  
C        C      0.196700000000     0.296600000000     0.620500000000    -0.0310542  
C        C      0.154600000000     0.346200000000     0.696400000000    -0.0310542  
C        C      0.021200000000     0.337500000000     0.702300000000    -0.0310542  
C        C      0.985700000000     0.379000000000     0.775400000000    -0.0310542  
C        C      0.079100000000     0.429200000000     0.843700000000    -0.0310542  
C        C      0.209500000000     0.438700000000     0.835900000000    -0.0310542  
C        C      0.247000000000     0.397900000000     0.763300000000    -0.0310542  
C        C      0.040200000000     0.468500000000     0.924300000000    -0.0310542  
C        C      0.053400000000     0.573200000000     0.950000000000    -0.0310542  
C        C      0.105400000000     0.656800000000     0.899000000000    -0.0310542  
C        C      0.987500000000     0.397100000000     0.974500000000    -0.0310542  
C        C      0.033000000000     0.098600000000     0.347500000000    -0.0310542  
C        C      0.186700000000     0.983400000000     0.388000000000    -0.0310542  
C        C      0.096700000000     0.940500000000     0.318500000000    -0.0310542  
C        C      0.875100000000     0.004600000000     0.224300000000    -0.0310542  
C        C      0.811400000000     0.091800000000     0.182100000000    -0.0310542  
C        C      0.699700000000     0.080100000000     0.110200000000    -0.0310542  
C        C      0.650600000000     0.982500000000     0.086000000000    -0.0310542  
C        C      0.714200000000     0.897500000000     0.126800000000    -0.0310542  
C        C      0.826800000000     0.907500000000     0.196200000000    -0.0310542  
C        C      0.303300000000     0.296600000000     0.379500000000    -0.0310542  
C        C      0.345400000000     0.346200000000     0.303600000000    -0.0310542  
C        C      0.478800000000     0.337500000000     0.297700000000    -0.0310542  
C        C      0.514300000000     0.379000000000     0.224600000000    -0.0310542  
C        C      0.420900000000     0.429200000000     0.156300000000    -0.0310542  
C        C      0.290500000000     0.438700000000     0.164100000000    -0.0310542  
C        C      0.253000000000     0.397900000000     0.236700000000    -0.0310542  
C        C      0.459800000000     0.468500000000     0.075700000000    -0.0310542  
C        C      0.446600000000     0.573200000000     0.050000000000    -0.0310542  
C        C      0.394600000000     0.656800000000     0.101000000000    -0.0310542  
C        C      0.512500000000     0.397100000000     0.025500000000    -0.0310542  
N        N      0.642200000000     0.918100000000     0.409600000000    -0.129548   
N        N      0.490600000000     0.984300000000     0.296600000000    -0.129548   
N        N      0.027200000000     0.040100000000     0.015800000000    -0.129548   
N        N      0.857800000000     0.918100000000     0.590400000000    -0.129548   
N        N      0.009400000000     0.984300000000     0.703400000000    -0.129548   
N        N      0.472800000000     0.040100000000     0.984200000000    -0.129548   
N        N      0.357800000000     0.081900000000     0.590400000000    -0.129548   
N        N      0.509400000000     0.015700000000     0.703400000000    -0.129548   
N        N      0.972800000000     0.959900000000     0.984200000000    -0.129548   
N        N      0.142200000000     0.081900000000     0.409600000000    -0.129548   
N        N      0.990600000000     0.015700000000     0.296600000000    -0.129548   
N        N      0.527200000000     0.959900000000     0.015800000000    -0.129548   
O        O      0.687600000000     0.690500000000     0.388400000000    -0.268122   
O        O      0.885800000000     0.761700000000     0.433060000000    -0.268122   
O        O      0.812400000000     0.690500000000     0.611600000000    -0.268122   
O        O      0.614200000000     0.761700000000     0.566940000000    -0.268122   
O        O      0.312400000000     0.309500000000     0.611600000000    -0.268122   
O        O      0.114200000000     0.238300000000     0.566940000000    -0.268122   
O        O      0.187600000000     0.309500000000     0.388400000000    -0.268122   
O        O      0.385800000000     0.238300000000     0.433060000000    -0.268122   


