data_KIYMIQ_original

_audit_creation_method RASPA-1.0
_audit_creation_date 2022-1-31
_audit_author_name 'Felipe Lopes de Oliveira <felipe.lopes.oliveira@ibm.com>'

_cell_length_a    8.688
_cell_length_b    18.2186
_cell_length_c    18.2186
_cell_angle_alpha 120
_cell_angle_beta  90
_cell_angle_gamma 90
_cell_volume      2497.36

_symmetry_cell_setting          triclinic
_symmetry_space_group_name_Hall 'P 1'
_symmetry_space_group_name_H-M  'P 1'
_symmetry_Int_Tables_number     1

_symmetry_equiv_pos_as_xyz 'x,y,z'

loop_
_atom_site_label
_atom_site_type_symbol
_atom_site_fract_x
_atom_site_fract_y
_atom_site_fract_z
_atom_site_charge
Na       Na     0.823680000000     0.361650000000     0.725210000000     1.82147    
Na       Na     0.821610000000     0.259080000000     0.511050000000     1.82147    
Na       Na     0.157010000000     0.363560000000     0.638350000000     1.82147    
Na       Na     0.154940000000     0.251970000000     0.740920000000     1.82147    
Na       Na     0.490350000000     0.274790000000     0.636440000000     1.82147    
Na       Na     0.488280000000     0.488950000000     0.748030000000     1.82147    
Na       Na     0.323680000000     0.638350000000     0.274790000000     1.82147    
Na       Na     0.321610000000     0.740920000000     0.488950000000     1.82147    
Na       Na     0.657010000000     0.636440000000     0.361650000000     1.82147    
Na       Na     0.654940000000     0.748030000000     0.259080000000     1.82147    
Na       Na     0.990350000000     0.725210000000     0.363560000000     1.82147    
Na       Na     0.988280000000     0.511050000000     0.251970000000     1.82147    
H        H      0.883500000000     0.056400000000     0.492300000000    -0.0298677  
H        H      0.552800000000     0.875300000000     0.621500000000    -0.0298677  
H        H      0.656400000000     0.163100000000     0.754700000000    -0.0298677  
H        H      0.473700000000     0.964400000000     0.756900000000    -0.0298677  
H        H      0.525200000000     0.107700000000     0.822800000000    -0.0298677  
H        H      0.834700000000     0.913500000000     0.425200000000    -0.0298677  
H        H      0.216830000000     0.435900000000     0.943600000000    -0.0298677  
H        H      0.886130000000     0.746200000000     0.124700000000    -0.0298677  
H        H      0.989730000000     0.591600000000     0.836900000000    -0.0298677  
H        H      0.807030000000     0.792500000000     0.035600000000    -0.0298677  
H        H      0.858530000000     0.715100000000     0.892300000000    -0.0298677  
H        H      0.168030000000     0.511700000000     0.086500000000    -0.0298677  
H        H      0.550170000000     0.507700000000     0.564100000000    -0.0298677  
H        H      0.219470000000     0.378500000000     0.253800000000    -0.0298677  
H        H      0.323070000000     0.245300000000     0.408400000000    -0.0298677  
H        H      0.140370000000     0.243100000000     0.207500000000    -0.0298677  
H        H      0.191870000000     0.177200000000     0.284900000000    -0.0298677  
H        H      0.501370000000     0.574800000000     0.488300000000    -0.0298677  
H        H      0.383500000000     0.943600000000     0.507700000000    -0.0298677  
H        H      0.052800000000     0.124700000000     0.378500000000    -0.0298677  
H        H      0.156400000000     0.836900000000     0.245300000000    -0.0298677  
H        H      0.973700000000     0.035600000000     0.243100000000    -0.0298677  
H        H      0.025200000000     0.892300000000     0.177200000000    -0.0298677  
H        H      0.334700000000     0.086500000000     0.574800000000    -0.0298677  
H        H      0.716830000000     0.564100000000     0.056400000000    -0.0298677  
H        H      0.386130000000     0.253800000000     0.875300000000    -0.0298677  
H        H      0.489730000000     0.408400000000     0.163100000000    -0.0298677  
H        H      0.307030000000     0.207500000000     0.964400000000    -0.0298677  
H        H      0.358530000000     0.284900000000     0.107700000000    -0.0298677  
H        H      0.668030000000     0.488300000000     0.913500000000    -0.0298677  
H        H      0.050170000000     0.492300000000     0.435900000000    -0.0298677  
H        H      0.719470000000     0.621500000000     0.746200000000    -0.0298677  
H        H      0.823070000000     0.754700000000     0.591600000000    -0.0298677  
H        H      0.640370000000     0.756900000000     0.792500000000    -0.0298677  
H        H      0.691870000000     0.822800000000     0.715100000000    -0.0298677  
H        H      0.001370000000     0.425200000000     0.511700000000    -0.0298677  
C        C      0.806000000000     0.181490000000     0.640900000000     0.0316568  
C        C      0.774800000000     0.087310000000     0.600510000000     0.0316568  
C        C      0.658500000000     0.964170000000     0.601140000000     0.0316568  
C        C      0.692300000000     0.053010000000     0.643420000000     0.0316568  
C        C      0.826800000000     0.034350000000     0.520100000000     0.0316568  
C        C      0.575100000000     0.932850000000     0.647080000000     0.0316568  
C        C      0.637600000000     0.105110000000     0.727180000000     0.0316568  
C        C      0.527800000000     0.986100000000     0.727900000000     0.0316568  
C        C      0.559000000000     0.072300000000     0.767600000000     0.0316568  
C        C      0.796000000000     0.947870000000     0.479460000000     0.0316568  
C        C      0.711100000000     0.911170000000     0.515850000000     0.0316568  
C        C      0.671600000000     0.818380000000     0.461660000000     0.0316568  
C        C      0.139330000000     0.459410000000     0.818510000000     0.0316568  
C        C      0.108130000000     0.513200000000     0.912690000000     0.0316568  
C        C      0.991830000000     0.636970000000     0.035830000000     0.0316568  
C        C      0.025630000000     0.590410000000     0.946990000000     0.0316568  
C        C      0.160130000000     0.485750000000     0.965650000000     0.0316568  
C        C      0.908430000000     0.714230000000     0.067150000000     0.0316568  
C        C      0.970930000000     0.622070000000     0.894890000000     0.0316568  
C        C      0.861130000000     0.741800000000     0.013900000000     0.0316568  
C        C      0.892330000000     0.695300000000     0.927700000000     0.0316568  
C        C      0.129330000000     0.531590000000     0.052130000000     0.0316568  
C        C      0.044430000000     0.604680000000     0.088830000000     0.0316568  
C        C      0.004930000000     0.643280000000     0.181620000000     0.0316568  
C        C      0.472670000000     0.359100000000     0.540590000000     0.0316568  
C        C      0.441470000000     0.399490000000     0.486800000000     0.0316568  
C        C      0.325170000000     0.398860000000     0.363030000000     0.0316568  
C        C      0.358970000000     0.356580000000     0.409590000000     0.0316568  
C        C      0.493470000000     0.479900000000     0.514250000000     0.0316568  
C        C      0.241770000000     0.352920000000     0.285770000000     0.0316568  
C        C      0.304270000000     0.272820000000     0.377930000000     0.0316568  
C        C      0.194470000000     0.272100000000     0.258200000000     0.0316568  
C        C      0.225670000000     0.232400000000     0.304700000000     0.0316568  
C        C      0.462670000000     0.520540000000     0.468410000000     0.0316568  
C        C      0.377770000000     0.484150000000     0.395320000000     0.0316568  
C        C      0.338270000000     0.538340000000     0.356720000000     0.0316568  
C        C      0.306000000000     0.818510000000     0.359100000000     0.0316568  
C        C      0.274800000000     0.912690000000     0.399490000000     0.0316568  
C        C      0.158500000000     0.035830000000     0.398860000000     0.0316568  
C        C      0.192300000000     0.946990000000     0.356580000000     0.0316568  
C        C      0.326800000000     0.965650000000     0.479900000000     0.0316568  
C        C      0.075100000000     0.067150000000     0.352920000000     0.0316568  
C        C      0.137600000000     0.894890000000     0.272820000000     0.0316568  
C        C      0.027800000000     0.013900000000     0.272100000000     0.0316568  
C        C      0.059000000000     0.927700000000     0.232400000000     0.0316568  
C        C      0.296000000000     0.052130000000     0.520540000000     0.0316568  
C        C      0.211100000000     0.088830000000     0.484150000000     0.0316568  
C        C      0.171600000000     0.181620000000     0.538340000000     0.0316568  
C        C      0.639330000000     0.540590000000     0.181490000000     0.0316568  
C        C      0.608130000000     0.486800000000     0.087310000000     0.0316568  
C        C      0.491830000000     0.363030000000     0.964170000000     0.0316568  
C        C      0.525630000000     0.409590000000     0.053010000000     0.0316568  
C        C      0.660130000000     0.514250000000     0.034350000000     0.0316568  
C        C      0.408430000000     0.285770000000     0.932850000000     0.0316568  
C        C      0.470930000000     0.377930000000     0.105110000000     0.0316568  
C        C      0.361130000000     0.258200000000     0.986100000000     0.0316568  
C        C      0.392330000000     0.304700000000     0.072300000000     0.0316568  
C        C      0.629330000000     0.468410000000     0.947870000000     0.0316568  
C        C      0.544430000000     0.395320000000     0.911170000000     0.0316568  
C        C      0.504930000000     0.356720000000     0.818380000000     0.0316568  
C        C      0.972670000000     0.640900000000     0.459410000000     0.0316568  
C        C      0.941470000000     0.600510000000     0.513200000000     0.0316568  
C        C      0.825170000000     0.601140000000     0.636970000000     0.0316568  
C        C      0.858970000000     0.643420000000     0.590410000000     0.0316568  
C        C      0.993470000000     0.520100000000     0.485750000000     0.0316568  
C        C      0.741770000000     0.647080000000     0.714230000000     0.0316568  
C        C      0.804270000000     0.727180000000     0.622070000000     0.0316568  
C        C      0.694470000000     0.727900000000     0.741800000000     0.0316568  
C        C      0.725670000000     0.767600000000     0.695300000000     0.0316568  
C        C      0.962670000000     0.479460000000     0.531590000000     0.0316568  
C        C      0.877770000000     0.515850000000     0.604680000000     0.0316568  
C        C      0.838270000000     0.461660000000     0.643280000000     0.0316568  
O        O      0.733400000000     0.219500000000     0.609970000000    -0.960905   
O        O      0.897800000000     0.215870000000     0.700850000000    -0.960905   
O        O      0.747500000000     0.776650000000     0.394290000000    -0.960905   
O        O      0.565600000000     0.786700000000     0.482500000000    -0.960905   
O        O      0.066730000000     0.390470000000     0.780500000000    -0.960905   
O        O      0.231130000000     0.484980000000     0.784130000000    -0.960905   
O        O      0.080830000000     0.617640000000     0.223350000000    -0.960905   
O        O      0.898930000000     0.695800000000     0.213300000000    -0.960905   
O        O      0.400070000000     0.390030000000     0.609530000000    -0.960905   
O        O      0.564470000000     0.299150000000     0.515020000000    -0.960905   
O        O      0.414170000000     0.605710000000     0.382360000000    -0.960905   
O        O      0.232270000000     0.517500000000     0.304200000000    -0.960905   
O        O      0.233400000000     0.780500000000     0.390030000000    -0.960905   
O        O      0.397800000000     0.784130000000     0.299150000000    -0.960905   
O        O      0.247500000000     0.223350000000     0.605710000000    -0.960905   
O        O      0.065600000000     0.213300000000     0.517500000000    -0.960905   
O        O      0.566730000000     0.609530000000     0.219500000000    -0.960905   
O        O      0.731130000000     0.515020000000     0.215870000000    -0.960905   
O        O      0.580830000000     0.382360000000     0.776650000000    -0.960905   
O        O      0.398930000000     0.304200000000     0.786700000000    -0.960905   
O        O      0.900070000000     0.609970000000     0.390470000000    -0.960905   
O        O      0.064470000000     0.700850000000     0.484980000000    -0.960905   
O        O      0.914170000000     0.394290000000     0.617640000000    -0.960905   
O        O      0.732270000000     0.482500000000     0.695800000000    -0.960905   


