data_KOMGUP_original

_audit_creation_method RASPA-1.0
_audit_creation_date 2022-1-31
_audit_author_name 'Felipe Lopes de Oliveira <felipe.lopes.oliveira@ibm.com>'

_cell_length_a    9.3531
_cell_length_b    9.8055
_cell_length_c    16.1941
_cell_angle_alpha 90
_cell_angle_beta  90
_cell_angle_gamma 90
_cell_volume      1485.19

_symmetry_cell_setting          triclinic
_symmetry_space_group_name_Hall 'P 1'
_symmetry_space_group_name_H-M  'P 1'
_symmetry_Int_Tables_number     1

_symmetry_equiv_pos_as_xyz 'x,y,z'

loop_
_atom_site_label
_atom_site_type_symbol
_atom_site_fract_x
_atom_site_fract_y
_atom_site_fract_z
_atom_site_charge
Zn       Zn     0.940500000000     0.120020000000     0.582340000000     0.395589   
Zn       Zn     0.440500000000     0.379980000000     0.417660000000     0.395589   
Zn       Zn     0.059500000000     0.879980000000     0.082340000000     0.395589   
Zn       Zn     0.559500000000     0.620020000000     0.917660000000     0.395589   
Zn       Zn     0.059500000000     0.879980000000     0.417660000000     0.395589   
Zn       Zn     0.559500000000     0.620020000000     0.582340000000     0.395589   
Zn       Zn     0.940500000000     0.120020000000     0.917660000000     0.395589   
Zn       Zn     0.440500000000     0.379980000000     0.082340000000     0.395589   
H        H      0.670400000000     0.021300000000     0.664800000000     0.121103   
H        H      0.581200000000     0.895600000000     0.668300000000     0.121103   
H        H      0.827400000000     0.670800000000     0.468100000000     0.121103   
H        H      0.170400000000     0.478700000000     0.335200000000     0.121103   
H        H      0.081200000000     0.604400000000     0.331700000000     0.121103   
H        H      0.327400000000     0.829200000000     0.531900000000     0.121103   
H        H      0.329600000000     0.978700000000     0.164800000000     0.121103   
H        H      0.418800000000     0.104400000000     0.168300000000     0.121103   
H        H      0.172600000000     0.329200000000     0.968100000000     0.121103   
H        H      0.829600000000     0.521300000000     0.835200000000     0.121103   
H        H      0.918800000000     0.395600000000     0.831700000000     0.121103   
H        H      0.672600000000     0.170800000000     0.031900000000     0.121103   
H        H      0.329600000000     0.978700000000     0.335200000000     0.121103   
H        H      0.418800000000     0.104400000000     0.331700000000     0.121103   
H        H      0.172600000000     0.329200000000     0.531900000000     0.121103   
H        H      0.829600000000     0.521300000000     0.664800000000     0.121103   
H        H      0.918800000000     0.395600000000     0.668300000000     0.121103   
H        H      0.672600000000     0.170800000000     0.468100000000     0.121103   
H        H      0.670400000000     0.021300000000     0.835200000000     0.121103   
H        H      0.581200000000     0.895600000000     0.831700000000     0.121103   
H        H      0.827400000000     0.670800000000     0.031900000000     0.121103   
H        H      0.170400000000     0.478700000000     0.164800000000     0.121103   
H        H      0.081200000000     0.604400000000     0.168300000000     0.121103   
H        H      0.327400000000     0.829200000000     0.968100000000     0.121103   
C        C      0.740300000000     0.879000000000     0.593200000000     0.245803   
C        C      0.817600000000     0.745800000000     0.502800000000     0.245803   
C        C      0.240300000000     0.621000000000     0.406800000000     0.245803   
C        C      0.317600000000     0.754200000000     0.497200000000     0.245803   
C        C      0.259700000000     0.121000000000     0.093200000000     0.245803   
C        C      0.182400000000     0.254200000000     0.002800000000     0.245803   
C        C      0.759700000000     0.379000000000     0.906800000000     0.245803   
C        C      0.682400000000     0.245800000000     0.997200000000     0.245803   
C        C      0.259700000000     0.121000000000     0.406800000000     0.245803   
C        C      0.182400000000     0.254200000000     0.497200000000     0.245803   
C        C      0.759700000000     0.379000000000     0.593200000000     0.245803   
C        C      0.682400000000     0.245800000000     0.502800000000     0.245803   
C        C      0.740300000000     0.879000000000     0.906800000000     0.245803   
C        C      0.817600000000     0.745800000000     0.997200000000     0.245803   
C        C      0.240300000000     0.621000000000     0.093200000000     0.245803   
C        C      0.317600000000     0.754200000000     0.002800000000     0.245803   
C        C      0.975300000000     0.140400000000     0.750000000000     0.245803   
C        C      0.475300000000     0.359600000000     0.250000000000     0.245803   
C        C      0.024700000000     0.859600000000     0.250000000000     0.245803   
C        C      0.524700000000     0.640400000000     0.750000000000     0.245803   
N        N      0.854500000000     0.939100000000     0.559800000000    -0.214153   
N        N      0.902400000000     0.848700000000     0.501100000000    -0.214153   
N        N      0.713700000000     0.757200000000     0.559200000000    -0.214153   
N        N      0.653400000000     0.939200000000     0.648800000000    -0.214153   
N        N      0.354500000000     0.560900000000     0.440200000000    -0.214153   
N        N      0.402400000000     0.651300000000     0.498900000000    -0.214153   
N        N      0.213700000000     0.742800000000     0.440800000000    -0.214153   
N        N      0.153400000000     0.560800000000     0.351200000000    -0.214153   
N        N      0.145500000000     0.060900000000     0.059800000000    -0.214153   
N        N      0.097600000000     0.151300000000     0.001100000000    -0.214153   
N        N      0.286300000000     0.242800000000     0.059200000000    -0.214153   
N        N      0.346600000000     0.060800000000     0.148800000000    -0.214153   
N        N      0.645500000000     0.439100000000     0.940200000000    -0.214153   
N        N      0.597600000000     0.348700000000     0.998900000000    -0.214153   
N        N      0.786300000000     0.257200000000     0.940800000000    -0.214153   
N        N      0.846600000000     0.439200000000     0.851200000000    -0.214153   
N        N      0.145500000000     0.060900000000     0.440200000000    -0.214153   
N        N      0.097600000000     0.151300000000     0.498900000000    -0.214153   
N        N      0.286300000000     0.242800000000     0.440800000000    -0.214153   
N        N      0.346600000000     0.060800000000     0.351200000000    -0.214153   
N        N      0.645500000000     0.439100000000     0.559800000000    -0.214153   
N        N      0.597600000000     0.348700000000     0.501100000000    -0.214153   
N        N      0.786300000000     0.257200000000     0.559200000000    -0.214153   
N        N      0.846600000000     0.439200000000     0.648800000000    -0.214153   
N        N      0.854500000000     0.939100000000     0.940200000000    -0.214153   
N        N      0.902400000000     0.848700000000     0.998900000000    -0.214153   
N        N      0.713700000000     0.757200000000     0.940800000000    -0.214153   
N        N      0.653400000000     0.939200000000     0.851200000000    -0.214153   
N        N      0.354500000000     0.560900000000     0.059800000000    -0.214153   
N        N      0.402400000000     0.651300000000     0.001100000000    -0.214153   
N        N      0.213700000000     0.742800000000     0.059200000000    -0.214153   
N        N      0.153400000000     0.560800000000     0.148800000000    -0.214153   
O        O      0.041800000000     0.162200000000     0.682000000000    -0.344528   
O        O      0.541800000000     0.337800000000     0.318000000000    -0.344528   
O        O      0.958200000000     0.837800000000     0.182000000000    -0.344528   
O        O      0.458200000000     0.662200000000     0.818000000000    -0.344528   
O        O      0.958200000000     0.837800000000     0.318000000000    -0.344528   
O        O      0.458200000000     0.662200000000     0.682000000000    -0.344528   
O        O      0.041800000000     0.162200000000     0.818000000000    -0.344528   
O        O      0.541800000000     0.337800000000     0.182000000000    -0.344528   
O        O      0.849800000000     0.109900000000     0.750000000000    -0.344528   
O        O      0.349800000000     0.390100000000     0.250000000000    -0.344528   
O        O      0.150200000000     0.890100000000     0.250000000000    -0.344528   
O        O      0.650200000000     0.609900000000     0.750000000000    -0.344528   


