data_KOMHAW_original

_audit_creation_method RASPA-1.0
_audit_creation_date 2022-1-29
_audit_author_name 'Felipe Lopes de Oliveira <felipe.lopes.oliveira@ibm.com>'

_cell_length_a    9.0436
_cell_length_b    9.7308
_cell_length_c    17.3916
_cell_angle_alpha 94.4309
_cell_angle_beta  105.07
_cell_angle_gamma 90
_cell_volume      1473.11

_symmetry_cell_setting          triclinic
_symmetry_space_group_name_Hall 'P 1'
_symmetry_space_group_name_H-M  'P 1'
_symmetry_Int_Tables_number     1

_symmetry_equiv_pos_as_xyz 'x,y,z'

loop_
_atom_site_label
_atom_site_type_symbol
_atom_site_fract_x
_atom_site_fract_y
_atom_site_fract_z
_atom_site_charge
Zn       Zn     0.781660000000     0.759610000000     0.164260000000     0.387392   
Zn       Zn     0.966590000000     0.553040000000     0.342920000000     0.387392   
Zn       Zn     0.617400000000     0.740390000000     0.835740000000     0.387392   
Zn       Zn     0.623670000000     0.946960000000     0.657080000000     0.387392   
Zn       Zn     0.218340000000     0.240390000000     0.835740000000     0.387392   
Zn       Zn     0.033410000000     0.446960000000     0.657080000000     0.387392   
Zn       Zn     0.382600000000     0.259610000000     0.164260000000     0.387392   
Zn       Zn     0.376330000000     0.053040000000     0.342920000000     0.387392   
H        H      0.479900000000     0.640000000000     0.069200000000     0.125223   
H        H      0.379200000000     0.518000000000     0.067400000000     0.125223   
H        H      0.132200000000     0.047600000000     0.184200000000     0.125223   
H        H      0.992000000000     0.967900000000     0.138800000000     0.125223   
H        H      0.698300000000     0.334800000000     0.282000000000     0.125223   
H        H      0.226700000000     0.789000000000     0.399400000000     0.125223   
H        H      0.410700000000     0.860000000000     0.930800000000     0.125223   
H        H      0.311800000000     0.982000000000     0.932600000000     0.125223   
H        H      0.948000000000     0.452400000000     0.815800000000     0.125223   
H        H      0.853200000000     0.532100000000     0.861200000000     0.125223   
H        H      0.416300000000     0.165200000000     0.718000000000     0.125223   
H        H      0.827300000000     0.711000000000     0.600600000000     0.125223   
H        H      0.520100000000     0.360000000000     0.930800000000     0.125223   
H        H      0.620800000000     0.482000000000     0.932600000000     0.125223   
H        H      0.867800000000     0.952400000000     0.815800000000     0.125223   
H        H      0.008000000000     0.032100000000     0.861200000000     0.125223   
H        H      0.301700000000     0.665200000000     0.718000000000     0.125223   
H        H      0.773300000000     0.211000000000     0.600600000000     0.125223   
H        H      0.589300000000     0.140000000000     0.069200000000     0.125223   
H        H      0.688200000000     0.018000000000     0.067400000000     0.125223   
H        H      0.052000000000     0.547600000000     0.184200000000     0.125223   
H        H      0.146800000000     0.467900000000     0.138800000000     0.125223   
H        H      0.583700000000     0.834800000000     0.282000000000     0.125223   
H        H      0.172700000000     0.289000000000     0.399400000000     0.125223   
C        C      0.567400000000     0.518900000000     0.152200000000     0.210344   
C        C      0.677250000000     0.403400000000     0.246500000000     0.210344   
C        C      0.083940000000     0.896600000000     0.241880000000     0.210344   
C        C      0.166480000000     0.806800000000     0.349160000000     0.210344   
C        C      0.931740000000     0.451200000000     0.486480000000     0.210344   
C        C      0.415200000000     0.981100000000     0.847800000000     0.210344   
C        C      0.430750000000     0.096600000000     0.753500000000     0.210344   
C        C      0.842060000000     0.603400000000     0.758120000000     0.210344   
C        C      0.817320000000     0.693200000000     0.650840000000     0.210344   
C        C      0.445260000000     0.048800000000     0.513520000000     0.210344   
C        C      0.432600000000     0.481100000000     0.847800000000     0.210344   
C        C      0.322750000000     0.596600000000     0.753500000000     0.210344   
C        C      0.916060000000     0.103400000000     0.758120000000     0.210344   
C        C      0.833520000000     0.193200000000     0.650840000000     0.210344   
C        C      0.068260000000     0.548800000000     0.513520000000     0.210344   
C        C      0.584800000000     0.018900000000     0.152200000000     0.210344   
C        C      0.569250000000     0.903400000000     0.246500000000     0.210344   
C        C      0.157940000000     0.396600000000     0.241880000000     0.210344   
C        C      0.182680000000     0.306800000000     0.349160000000     0.210344   
C        C      0.554740000000     0.951200000000     0.486480000000     0.210344   
C        C      0.736800000000     0.750000000000     0.000000000000     0.210344   
C        C      0.263200000000     0.250000000000     0.000000000000     0.210344   
N        N      0.698880000000     0.584100000000     0.188360000000    -0.209507   
N        N      0.768490000000     0.506900000000     0.250580000000    -0.209507   
N        N      0.549130000000     0.403500000000     0.186460000000    -0.209507   
N        N      0.462590000000     0.564600000000     0.088380000000    -0.209507   
N        N      0.988070000000     0.793400000000     0.240940000000    -0.209507   
N        N      0.044130000000     0.733800000000     0.311260000000    -0.209507   
N        N      0.196280000000     0.910400000000     0.307960000000    -0.209507   
N        N      0.067330000000     0.981200000000     0.180660000000    -0.209507   
N        N      0.510520000000     0.915900000000     0.811640000000    -0.209507   
N        N      0.517910000000     0.993100000000     0.749420000000    -0.209507   
N        N      0.362670000000     0.096500000000     0.813540000000    -0.209507   
N        N      0.374210000000     0.935400000000     0.911620000000    -0.209507   
N        N      0.747130000000     0.706600000000     0.759060000000    -0.209507   
N        N      0.732870000000     0.766200000000     0.688740000000    -0.209507   
N        N      0.888320000000     0.589600000000     0.692040000000    -0.209507   
N        N      0.886670000000     0.518800000000     0.819340000000    -0.209507   
N        N      0.301120000000     0.415900000000     0.811640000000    -0.209507   
N        N      0.231510000000     0.493100000000     0.749420000000    -0.209507   
N        N      0.450870000000     0.596500000000     0.813540000000    -0.209507   
N        N      0.537410000000     0.435400000000     0.911620000000    -0.209507   
N        N      0.011930000000     0.206600000000     0.759060000000    -0.209507   
N        N      0.955870000000     0.266200000000     0.688740000000    -0.209507   
N        N      0.803720000000     0.089600000000     0.692040000000    -0.209507   
N        N      0.932670000000     0.018800000000     0.819340000000    -0.209507   
N        N      0.489480000000     0.084100000000     0.188360000000    -0.209507   
N        N      0.482090000000     0.006900000000     0.250580000000    -0.209507   
N        N      0.637330000000     0.903500000000     0.186460000000    -0.209507   
N        N      0.625790000000     0.064600000000     0.088380000000    -0.209507   
N        N      0.252870000000     0.293400000000     0.240940000000    -0.209507   
N        N      0.267130000000     0.233800000000     0.311260000000    -0.209507   
N        N      0.111680000000     0.410400000000     0.307960000000    -0.209507   
N        N      0.113330000000     0.481200000000     0.180660000000    -0.209507   
O        O      0.842550000000     0.759200000000     0.065700000000    -0.287702   
O        O      0.877470000000     0.424400000000     0.413740000000    -0.287702   
O        O      0.887030000000     0.397500000000     0.540060000000    -0.287702   
O        O      0.776850000000     0.740800000000     0.934300000000    -0.287702   
O        O      0.463730000000     0.075600000000     0.586260000000    -0.287702   
O        O      0.346970000000     0.102500000000     0.459940000000    -0.287702   
O        O      0.157450000000     0.240800000000     0.934300000000    -0.287702   
O        O      0.122530000000     0.575600000000     0.586260000000    -0.287702   
O        O      0.112970000000     0.602500000000     0.459940000000    -0.287702   
O        O      0.223150000000     0.259200000000     0.065700000000    -0.287702   
O        O      0.536270000000     0.924400000000     0.413740000000    -0.287702   
O        O      0.653030000000     0.897500000000     0.540060000000    -0.287702   
O        O      0.598000000000     0.750000000000     0.000000000000    -0.287702   
O        O      0.402000000000     0.250000000000     0.000000000000    -0.287702   


