data_KUNWEW_original

_audit_creation_method RASPA-1.0
_audit_creation_date 2022-1-31
_audit_author_name 'Felipe Lopes de Oliveira <felipe.lopes.oliveira@ibm.com>'

_cell_length_a    10.929
_cell_length_b    16.594
_cell_length_c    18.277
_cell_angle_alpha 116.998
_cell_angle_beta  107.396
_cell_angle_gamma 90
_cell_volume      2782.18

_symmetry_cell_setting          triclinic
_symmetry_space_group_name_Hall 'P 1'
_symmetry_space_group_name_H-M  'P 1'
_symmetry_Int_Tables_number     1

_symmetry_equiv_pos_as_xyz 'x,y,z'

loop_
_atom_site_label
_atom_site_type_symbol
_atom_site_fract_x
_atom_site_fract_y
_atom_site_fract_z
_atom_site_charge
Zn       Zn     0.223350000000     0.434680000000     0.649240000000     0.464779   
Zn       Zn     0.789110000000     0.630580000000     0.153420000000     0.464779   
Zn       Zn     0.776650000000     0.785440000000     0.350760000000     0.464779   
Zn       Zn     0.210890000000     0.477160000000     0.846580000000     0.464779   
Zn       Zn     0.425890000000     0.934680000000     0.649240000000     0.464779   
Zn       Zn     0.364310000000     0.130580000000     0.153420000000     0.464779   
Zn       Zn     0.574110000000     0.285440000000     0.350760000000     0.464779   
Zn       Zn     0.635690000000     0.977160000000     0.846580000000     0.464779   
H        H      0.443900000000     0.199600000000     0.708400000000     0.0629899  
H        H      0.683200000000     0.267800000000     0.949000000000     0.0629899  
H        H      0.528400000000     0.460800000000     0.894400000000     0.0629899  
H        H      0.578500000000     0.631100000000     0.641000000000     0.0629899  
H        H      0.503500000000     0.594400000000     0.736200000000     0.0629899  
H        H      0.275500000000     0.378100000000     0.367400000000     0.0629899  
H        H      0.088500000000     0.268300000000     0.270600000000     0.0629899  
H        H      0.951100000000     0.226600000000     0.326000000000     0.0629899  
H        H      0.995500000000     0.296500000000     0.472200000000     0.0629899  
H        H      0.516300000000     0.573700000000     0.477800000000     0.0629899  
H        H      0.442500000000     0.472600000000     0.417200000000     0.0629899  
H        H      0.288700000000     0.481500000000     0.299800000000     0.0629899  
H        H      0.107000000000     0.533700000000     0.242600000000     0.0629899  
H        H      0.136200000000     0.720500000000     0.484000000000     0.0629899  
H        H      0.311400000000     0.666300000000     0.540800000000     0.0629899  
H        H      0.556100000000     0.491200000000     0.291600000000     0.0629899  
H        H      0.316800000000     0.318800000000     0.051000000000     0.0629899  
H        H      0.471600000000     0.566400000000     0.105600000000     0.0629899  
H        H      0.421500000000     0.990100000000     0.359000000000     0.0629899  
H        H      0.496500000000     0.858200000000     0.263800000000     0.0629899  
H        H      0.724500000000     0.010700000000     0.632600000000     0.0629899  
H        H      0.911500000000     0.997700000000     0.729400000000     0.0629899  
H        H      0.048900000000     0.900600000000     0.674000000000     0.0629899  
H        H      0.004500000000     0.824300000000     0.527800000000     0.0629899  
H        H      0.483700000000     0.095900000000     0.522200000000     0.0629899  
H        H      0.557500000000     0.055400000000     0.582800000000     0.0629899  
H        H      0.711300000000     0.181700000000     0.700200000000     0.0629899  
H        H      0.893000000000     0.291100000000     0.757400000000     0.0629899  
H        H      0.863800000000     0.236500000000     0.516000000000     0.0629899  
H        H      0.688600000000     0.125500000000     0.459200000000     0.0629899  
H        H      0.264500000000     0.699600000000     0.708400000000     0.0629899  
H        H      0.265800000000     0.767800000000     0.949000000000     0.0629899  
H        H      0.366000000000     0.960800000000     0.894400000000     0.0629899  
H        H      0.062500000000     0.131100000000     0.641000000000     0.0629899  
H        H      0.232700000000     0.094400000000     0.736200000000     0.0629899  
H        H      0.091900000000     0.878100000000     0.367400000000     0.0629899  
H        H      0.182100000000     0.768300000000     0.270600000000     0.0629899  
H        H      0.374900000000     0.726600000000     0.326000000000     0.0629899  
H        H      0.476700000000     0.796500000000     0.472200000000     0.0629899  
H        H      0.961500000000     0.073700000000     0.477800000000     0.0629899  
H        H      0.974700000000     0.972600000000     0.417200000000     0.0629899  
H        H      0.011100000000     0.981500000000     0.299800000000     0.0629899  
H        H      0.135600000000     0.033700000000     0.242600000000     0.0629899  
H        H      0.347800000000     0.220500000000     0.484000000000     0.0629899  
H        H      0.229400000000     0.166300000000     0.540800000000     0.0629899  
H        H      0.735500000000     0.991200000000     0.291600000000     0.0629899  
H        H      0.734200000000     0.818800000000     0.051000000000     0.0629899  
H        H      0.634000000000     0.066400000000     0.105600000000     0.0629899  
H        H      0.937500000000     0.490100000000     0.359000000000     0.0629899  
H        H      0.767300000000     0.358200000000     0.263800000000     0.0629899  
H        H      0.908100000000     0.510700000000     0.632600000000     0.0629899  
H        H      0.817900000000     0.497700000000     0.729400000000     0.0629899  
H        H      0.625100000000     0.400600000000     0.674000000000     0.0629899  
H        H      0.523300000000     0.324300000000     0.527800000000     0.0629899  
H        H      0.038500000000     0.595900000000     0.522200000000     0.0629899  
H        H      0.025300000000     0.555400000000     0.582800000000     0.0629899  
H        H      0.988900000000     0.681700000000     0.700200000000     0.0629899  
H        H      0.864400000000     0.791100000000     0.757400000000     0.0629899  
H        H      0.652200000000     0.736500000000     0.516000000000     0.0629899  
H        H      0.770600000000     0.625500000000     0.459200000000     0.0629899  
C        C      0.487390000000     0.243690000000     0.765780000000     0.0337263  
C        C      0.566760000000     0.218060000000     0.823520000000     0.0337263  
C        C      0.632060000000     0.284660000000     0.909120000000     0.0337263  
C        C      0.620600000000     0.377400000000     0.935200000000     0.0337263  
C        C      0.538900000000     0.399900000000     0.876800000000     0.0337263  
C        C      0.472170000000     0.334670000000     0.792740000000     0.0337263  
C        C      0.695900000000     0.450500000000     0.026600000000     0.0337263  
C        C      0.380880000000     0.362380000000     0.730960000000     0.0337263  
C        C      0.576940000000     0.119640000000     0.796480000000     0.0337263  
C        C      0.510300000000     0.585800000000     0.623800000000     0.0337263  
C        C      0.467600000000     0.565700000000     0.675800000000     0.0337263  
C        C      0.342390000000     0.475290000000     0.545180000000     0.0337263  
C        C      0.234130000000     0.402930000000     0.475060000000     0.0337263  
C        C      0.216300000000     0.362200000000     0.388000000000     0.0337263  
C        C      0.105700000000     0.295600000000     0.330400000000     0.0337263  
C        C      0.023900000000     0.271300000000     0.362800000000     0.0337263  
C        C      0.051500000000     0.314100000000     0.450600000000     0.0337263  
C        C      0.438600000000     0.532700000000     0.461800000000     0.0337263  
C        C      0.318320000000     0.568320000000     0.425040000000     0.0337263  
C        C      0.256900000000     0.529300000000     0.337000000000     0.0337263  
C        C      0.147570000000     0.560270000000     0.302540000000     0.0337263  
C        C      0.099950000000     0.630350000000     0.357500000000     0.0337263  
C        C      0.165310000000     0.670910000000     0.446620000000     0.0337263  
C        C      0.271020000000     0.639820000000     0.480640000000     0.0337263  
C        C      0.980850000000     0.662850000000     0.319900000000     0.0337263  
C        C      0.512610000000     0.477910000000     0.234220000000     0.0337263  
C        C      0.433240000000     0.394540000000     0.176480000000     0.0337263  
C        C      0.367940000000     0.375540000000     0.090880000000     0.0337263  
C        C      0.379400000000     0.442200000000     0.064800000000     0.0337263  
C        C      0.461100000000     0.523100000000     0.123200000000     0.0337263  
C        C      0.527830000000     0.541930000000     0.207260000000     0.0337263  
C        C      0.304100000000     0.423900000000     0.973400000000     0.0337263  
C        C      0.619120000000     0.631420000000     0.269040000000     0.0337263  
C        C      0.423060000000     0.323160000000     0.203520000000     0.0337263  
C        C      0.489700000000     0.962000000000     0.376200000000     0.0337263  
C        C      0.532400000000     0.889900000000     0.324200000000     0.0337263  
C        C      0.657610000000     0.930110000000     0.454820000000     0.0337263  
C        C      0.765870000000     0.927870000000     0.524940000000     0.0337263  
C        C      0.783700000000     0.974200000000     0.612000000000     0.0337263  
C        C      0.894300000000     0.965200000000     0.669600000000     0.0337263  
C        C      0.976100000000     0.908500000000     0.637200000000     0.0337263  
C        C      0.948500000000     0.863500000000     0.549400000000     0.0337263  
C        C      0.561400000000     0.070900000000     0.538200000000     0.0337263  
C        C      0.681680000000     0.143280000000     0.574960000000     0.0337263  
C        C      0.743100000000     0.192300000000     0.663000000000     0.0337263  
C        C      0.852430000000     0.257730000000     0.697460000000     0.0337263  
C        C      0.900050000000     0.272850000000     0.642500000000     0.0337263  
C        C      0.834690000000     0.224290000000     0.553380000000     0.0337263  
C        C      0.728980000000     0.159180000000     0.519360000000     0.0337263  
C        C      0.019150000000     0.342950000000     0.680100000000     0.0337263  
C        C      0.278390000000     0.743690000000     0.765780000000     0.0337263  
C        C      0.256760000000     0.718060000000     0.823520000000     0.0337263  
C        C      0.277060000000     0.784660000000     0.909120000000     0.0337263  
C        C      0.314600000000     0.877400000000     0.935200000000     0.0337263  
C        C      0.337900000000     0.899900000000     0.876800000000     0.0337263  
C        C      0.320570000000     0.834670000000     0.792740000000     0.0337263  
C        C      0.330700000000     0.950500000000     0.026600000000     0.0337263  
C        C      0.350080000000     0.862380000000     0.730960000000     0.0337263  
C        C      0.219540000000     0.619640000000     0.796480000000     0.0337263  
C        C      0.113500000000     0.085800000000     0.623800000000     0.0337263  
C        C      0.208200000000     0.065700000000     0.675800000000     0.0337263  
C        C      0.202790000000     0.975290000000     0.545180000000     0.0337263  
C        C      0.240930000000     0.902930000000     0.475060000000     0.0337263  
C        C      0.171700000000     0.862200000000     0.388000000000     0.0337263  
C        C      0.224700000000     0.795600000000     0.330400000000     0.0337263  
C        C      0.338900000000     0.771300000000     0.362800000000     0.0337263  
C        C      0.399100000000     0.814100000000     0.450600000000     0.0337263  
C        C      0.023200000000     0.032700000000     0.461800000000     0.0337263  
C        C      0.106720000000     0.068320000000     0.425040000000     0.0337263  
C        C      0.080100000000     0.029300000000     0.337000000000     0.0337263  
C        C      0.154970000000     0.060270000000     0.302540000000     0.0337263  
C        C      0.257550000000     0.130350000000     0.357500000000     0.0337263  
C        C      0.281310000000     0.170910000000     0.446620000000     0.0337263  
C        C      0.209620000000     0.139820000000     0.480640000000     0.0337263  
C        C      0.339050000000     0.162850000000     0.319900000000     0.0337263  
C        C      0.721610000000     0.977910000000     0.234220000000     0.0337263  
C        C      0.743240000000     0.894540000000     0.176480000000     0.0337263  
C        C      0.722940000000     0.875540000000     0.090880000000     0.0337263  
C        C      0.685400000000     0.942200000000     0.064800000000     0.0337263  
C        C      0.662100000000     0.023100000000     0.123200000000     0.0337263  
C        C      0.679430000000     0.041930000000     0.207260000000     0.0337263  
C        C      0.669300000000     0.923900000000     0.973400000000     0.0337263  
C        C      0.649920000000     0.131420000000     0.269040000000     0.0337263  
C        C      0.780460000000     0.823160000000     0.203520000000     0.0337263  
C        C      0.886500000000     0.462000000000     0.376200000000     0.0337263  
C        C      0.791800000000     0.389900000000     0.324200000000     0.0337263  
C        C      0.797210000000     0.430110000000     0.454820000000     0.0337263  
C        C      0.759070000000     0.427870000000     0.524940000000     0.0337263  
C        C      0.828300000000     0.474200000000     0.612000000000     0.0337263  
C        C      0.775300000000     0.465200000000     0.669600000000     0.0337263  
C        C      0.661100000000     0.408500000000     0.637200000000     0.0337263  
C        C      0.600900000000     0.363500000000     0.549400000000     0.0337263  
C        C      0.976800000000     0.570900000000     0.538200000000     0.0337263  
C        C      0.893280000000     0.643280000000     0.574960000000     0.0337263  
C        C      0.919900000000     0.692300000000     0.663000000000     0.0337263  
C        C      0.845030000000     0.757730000000     0.697460000000     0.0337263  
C        C      0.742450000000     0.772850000000     0.642500000000     0.0337263  
C        C      0.718690000000     0.724290000000     0.553380000000     0.0337263  
C        C      0.790380000000     0.659180000000     0.519360000000     0.0337263  
C        C      0.660950000000     0.842950000000     0.680100000000     0.0337263  
N        N      0.433320000000     0.526520000000     0.539840000000    -0.131137   
N        N      0.364080000000     0.496980000000     0.627560000000    -0.131137   
N        N      0.154230000000     0.380130000000     0.508460000000    -0.131137   
N        N      0.566680000000     0.986680000000     0.460160000000    -0.131137   
N        N      0.635920000000     0.869420000000     0.372440000000    -0.131137   
N        N      0.845770000000     0.871670000000     0.491540000000    -0.131137   
N        N      0.106520000000     0.026520000000     0.539840000000    -0.131137   
N        N      0.263480000000     0.996980000000     0.627560000000    -0.131137   
N        N      0.354230000000     0.880130000000     0.508460000000    -0.131137   
N        N      0.893480000000     0.486680000000     0.460160000000    -0.131137   
N        N      0.736520000000     0.369420000000     0.372440000000    -0.131137   
N        N      0.645770000000     0.371670000000     0.491540000000    -0.131137   
O        O      0.680670000000     0.532270000000     0.043340000000    -0.290519   
O        O      0.741300000000     0.428900000000     0.087000000000    -0.290519   
O        O      0.357040000000     0.317440000000     0.651880000000    -0.290519   
O        O      0.332100000000     0.434800000000     0.764200000000    -0.290519   
O        O      0.542530000000     0.062930000000     0.716660000000    -0.290519   
O        O      0.618540000000     0.098540000000     0.857280000000    -0.290519   
O        O      0.937650000000     0.725350000000     0.370100000000    -0.290519   
O        O      0.932010000000     0.621810000000     0.237420000000    -0.290519   
O        O      0.319330000000     0.488930000000     0.956660000000    -0.290519   
O        O      0.258700000000     0.341900000000     0.913000000000    -0.290519   
O        O      0.642960000000     0.665560000000     0.348120000000    -0.290519   
O        O      0.667900000000     0.670600000000     0.235800000000    -0.290519   
O        O      0.457470000000     0.346270000000     0.283340000000    -0.290519   
O        O      0.381460000000     0.241260000000     0.142720000000    -0.290519   
O        O      0.062350000000     0.355250000000     0.629900000000    -0.290519   
O        O      0.067990000000     0.384390000000     0.762580000000    -0.290519   
O        O      0.362670000000     0.032270000000     0.043340000000    -0.290519   
O        O      0.345700000000     0.928900000000     0.087000000000    -0.290519   
O        O      0.294840000000     0.817440000000     0.651880000000    -0.290519   
O        O      0.432100000000     0.934800000000     0.764200000000    -0.290519   
O        O      0.174130000000     0.562930000000     0.716660000000    -0.290519   
O        O      0.238740000000     0.598540000000     0.857280000000    -0.290519   
O        O      0.432450000000     0.225350000000     0.370100000000    -0.290519   
O        O      0.305410000000     0.121810000000     0.237420000000    -0.290519   
O        O      0.637330000000     0.988930000000     0.956660000000    -0.290519   
O        O      0.654300000000     0.841900000000     0.913000000000    -0.290519   
O        O      0.705160000000     0.165560000000     0.348120000000    -0.290519   
O        O      0.567900000000     0.170600000000     0.235800000000    -0.290519   
O        O      0.825870000000     0.846270000000     0.283340000000    -0.290519   
O        O      0.761260000000     0.741260000000     0.142720000000    -0.290519   
O        O      0.567550000000     0.855250000000     0.629900000000    -0.290519   
O        O      0.694590000000     0.884390000000     0.762580000000    -0.290519   


