data_LACGAZ_original

_audit_creation_method RASPA-1.0
_audit_creation_date 2022-1-30
_audit_author_name 'Felipe Lopes de Oliveira <felipe.lopes.oliveira@ibm.com>'

_cell_length_a    10.143
_cell_length_b    12.709
_cell_length_c    16.795
_cell_angle_alpha 90
_cell_angle_beta  107.036
_cell_angle_gamma 90
_cell_volume      2070

_symmetry_cell_setting          triclinic
_symmetry_space_group_name_Hall 'P 1'
_symmetry_space_group_name_H-M  'P 1'
_symmetry_Int_Tables_number     1

_symmetry_equiv_pos_as_xyz 'x,y,z'

loop_
_atom_site_label
_atom_site_type_symbol
_atom_site_fract_x
_atom_site_fract_y
_atom_site_fract_z
_atom_site_charge
Ca       Ca     0.931380000000     0.232010000000     0.712810000000     1.49504    
Ca       Ca     0.068620000000     0.732010000000     0.787190000000     1.49504    
Ca       Ca     0.068620000000     0.767990000000     0.287190000000     1.49504    
Ca       Ca     0.931380000000     0.267990000000     0.212810000000     1.49504    
H        H      0.269100000000     0.325200000000     0.781100000000     0.0191805  
H        H      0.457800000000     0.415500000000     0.766600000000     0.0191805  
H        H      0.666400000000     0.327300000000     0.785600000000     0.0191805  
H        H      0.498300000000     0.064000000000     0.843600000000     0.0191805  
H        H      0.803800000000     0.641500000000     0.858300000000     0.0191805  
H        H      0.745700000000     0.478200000000     0.899000000000     0.0191805  
H        H      0.805600000000     0.434500000000     0.038000000000     0.0191805  
H        H      0.980200000000     0.716700000000     0.097900000000     0.0191805  
H        H      0.730900000000     0.825200000000     0.718900000000     0.0191805  
H        H      0.542200000000     0.915500000000     0.733400000000     0.0191805  
H        H      0.333600000000     0.827300000000     0.714400000000     0.0191805  
H        H      0.501700000000     0.564000000000     0.656400000000     0.0191805  
H        H      0.196200000000     0.141500000000     0.641700000000     0.0191805  
H        H      0.254300000000     0.978200000000     0.601000000000     0.0191805  
H        H      0.194400000000     0.934500000000     0.462000000000     0.0191805  
H        H      0.019800000000     0.216700000000     0.402100000000     0.0191805  
H        H      0.730900000000     0.674800000000     0.218900000000     0.0191805  
H        H      0.542200000000     0.584500000000     0.233400000000     0.0191805  
H        H      0.333600000000     0.672700000000     0.214400000000     0.0191805  
H        H      0.501700000000     0.936000000000     0.156400000000     0.0191805  
H        H      0.196200000000     0.358500000000     0.141700000000     0.0191805  
H        H      0.254300000000     0.521800000000     0.101000000000     0.0191805  
H        H      0.194400000000     0.565500000000     0.962000000000     0.0191805  
H        H      0.019800000000     0.283300000000     0.902100000000     0.0191805  
H        H      0.269100000000     0.174800000000     0.281100000000     0.0191805  
H        H      0.457800000000     0.084500000000     0.266600000000     0.0191805  
H        H      0.666400000000     0.172700000000     0.285600000000     0.0191805  
H        H      0.498300000000     0.436000000000     0.343600000000     0.0191805  
H        H      0.803800000000     0.858500000000     0.358300000000     0.0191805  
H        H      0.745700000000     0.021800000000     0.399000000000     0.0191805  
H        H      0.805600000000     0.065500000000     0.538000000000     0.0191805  
H        H      0.980200000000     0.783300000000     0.597900000000     0.0191805  
C        C      0.246800000000     0.129100000000     0.834100000000     0.0730033  
C        C      0.734900000000     0.128900000000     0.827600000000     0.0730033  
C        C      0.366500000000     0.186700000000     0.817600000000     0.0730033  
C        C      0.353700000000     0.291300000000     0.791600000000     0.0730033  
C        C      0.465400000000     0.344800000000     0.781300000000     0.0730033  
C        C      0.590900000000     0.291700000000     0.793100000000     0.0730033  
C        C      0.603200000000     0.187700000000     0.815600000000     0.0730033  
C        C      0.490300000000     0.134500000000     0.828200000000     0.0730033  
C        C      0.943200000000     0.800800000000     0.947400000000     0.0730033  
C        C      0.945100000000     0.539300000000     0.173000000000     0.0730033  
C        C      0.899700000000     0.694800000000     0.973200000000     0.0730033  
C        C      0.828600000000     0.623900000000     0.914500000000     0.0730033  
C        C      0.793700000000     0.526100000000     0.938800000000     0.0730033  
C        C      0.830000000000     0.500000000000     0.021900000000     0.0730033  
C        C      0.902400000000     0.570100000000     0.081800000000     0.0730033  
C        C      0.934900000000     0.668100000000     0.057800000000     0.0730033  
C        C      0.753200000000     0.629100000000     0.665900000000     0.0730033  
C        C      0.265100000000     0.628900000000     0.672400000000     0.0730033  
C        C      0.633500000000     0.686700000000     0.682400000000     0.0730033  
C        C      0.646300000000     0.791300000000     0.708400000000     0.0730033  
C        C      0.534600000000     0.844800000000     0.718700000000     0.0730033  
C        C      0.409100000000     0.791700000000     0.706900000000     0.0730033  
C        C      0.396800000000     0.687700000000     0.684400000000     0.0730033  
C        C      0.509700000000     0.634500000000     0.671800000000     0.0730033  
C        C      0.056800000000     0.300800000000     0.552600000000     0.0730033  
C        C      0.054900000000     0.039300000000     0.327000000000     0.0730033  
C        C      0.100300000000     0.194800000000     0.526800000000     0.0730033  
C        C      0.171400000000     0.123900000000     0.585500000000     0.0730033  
C        C      0.206300000000     0.026100000000     0.561200000000     0.0730033  
C        C      0.170000000000     0.000000000000     0.478100000000     0.0730033  
C        C      0.097600000000     0.070100000000     0.418200000000     0.0730033  
C        C      0.065100000000     0.168100000000     0.442200000000     0.0730033  
C        C      0.753200000000     0.870900000000     0.165900000000     0.0730033  
C        C      0.265100000000     0.871100000000     0.172400000000     0.0730033  
C        C      0.633500000000     0.813300000000     0.182400000000     0.0730033  
C        C      0.646300000000     0.708700000000     0.208400000000     0.0730033  
C        C      0.534600000000     0.655200000000     0.218700000000     0.0730033  
C        C      0.409100000000     0.708300000000     0.206900000000     0.0730033  
C        C      0.396800000000     0.812300000000     0.184400000000     0.0730033  
C        C      0.509700000000     0.865500000000     0.171800000000     0.0730033  
C        C      0.056800000000     0.199200000000     0.052600000000     0.0730033  
C        C      0.054900000000     0.460700000000     0.827000000000     0.0730033  
C        C      0.100300000000     0.305200000000     0.026800000000     0.0730033  
C        C      0.171400000000     0.376100000000     0.085500000000     0.0730033  
C        C      0.206300000000     0.473900000000     0.061200000000     0.0730033  
C        C      0.170000000000     0.500000000000     0.978100000000     0.0730033  
C        C      0.097600000000     0.429900000000     0.918200000000     0.0730033  
C        C      0.065100000000     0.331900000000     0.942200000000     0.0730033  
C        C      0.246800000000     0.370900000000     0.334100000000     0.0730033  
C        C      0.734900000000     0.371100000000     0.327600000000     0.0730033  
C        C      0.366500000000     0.313300000000     0.317600000000     0.0730033  
C        C      0.353700000000     0.208700000000     0.291600000000     0.0730033  
C        C      0.465400000000     0.155200000000     0.281300000000     0.0730033  
C        C      0.590900000000     0.208300000000     0.293100000000     0.0730033  
C        C      0.603200000000     0.312300000000     0.315600000000     0.0730033  
C        C      0.490300000000     0.365500000000     0.328200000000     0.0730033  
C        C      0.943200000000     0.699200000000     0.447400000000     0.0730033  
C        C      0.945100000000     0.960700000000     0.673000000000     0.0730033  
C        C      0.899700000000     0.805200000000     0.473200000000     0.0730033  
C        C      0.828600000000     0.876100000000     0.414500000000     0.0730033  
C        C      0.793700000000     0.973900000000     0.438800000000     0.0730033  
C        C      0.830000000000     0.000000000000     0.521900000000     0.0730033  
C        C      0.902400000000     0.929900000000     0.581800000000     0.0730033  
C        C      0.934900000000     0.831900000000     0.557800000000     0.0730033  
O        O      0.269300000000     0.045500000000     0.873500000000    -0.352067   
O        O      0.129300000000     0.169900000000     0.809200000000    -0.352067   
O        O      0.744900000000     0.035100000000     0.849400000000    -0.352067   
O        O      0.836400000000     0.179200000000     0.815200000000    -0.352067   
O        O      0.956500000000     0.804300000000     0.874900000000    -0.352067   
O        O      0.965100000000     0.875900000000     0.996300000000    -0.352067   
O        O      0.912300000000     0.449300000000     0.190800000000    -0.352067   
O        O      0.011800000000     0.603500000000     0.226900000000    -0.352067   
O        O      0.730700000000     0.545500000000     0.626500000000    -0.352067   
O        O      0.870700000000     0.669900000000     0.690800000000    -0.352067   
O        O      0.255100000000     0.535100000000     0.650600000000    -0.352067   
O        O      0.163600000000     0.679200000000     0.684800000000    -0.352067   
O        O      0.043500000000     0.304300000000     0.625100000000    -0.352067   
O        O      0.034900000000     0.375900000000     0.503700000000    -0.352067   
O        O      0.087700000000     0.949300000000     0.309200000000    -0.352067   
O        O      0.988200000000     0.103500000000     0.273100000000    -0.352067   
O        O      0.730700000000     0.954500000000     0.126500000000    -0.352067   
O        O      0.870700000000     0.830100000000     0.190800000000    -0.352067   
O        O      0.255100000000     0.964900000000     0.150600000000    -0.352067   
O        O      0.163600000000     0.820800000000     0.184800000000    -0.352067   
O        O      0.043500000000     0.195700000000     0.125100000000    -0.352067   
O        O      0.034900000000     0.124100000000     0.003700000000    -0.352067   
O        O      0.087700000000     0.550700000000     0.809200000000    -0.352067   
O        O      0.988200000000     0.396500000000     0.773100000000    -0.352067   
O        O      0.269300000000     0.454500000000     0.373500000000    -0.352067   
O        O      0.129300000000     0.330100000000     0.309200000000    -0.352067   
O        O      0.744900000000     0.464900000000     0.349400000000    -0.352067   
O        O      0.836400000000     0.320800000000     0.315200000000    -0.352067   
O        O      0.956500000000     0.695700000000     0.374900000000    -0.352067   
O        O      0.965100000000     0.624100000000     0.496300000000    -0.352067   
O        O      0.912300000000     0.050700000000     0.690800000000    -0.352067   
O        O      0.011800000000     0.896500000000     0.726900000000    -0.352067   


