data_LACJAC_original

_audit_creation_method RASPA-1.0
_audit_creation_date 2022-1-31
_audit_author_name 'Felipe Lopes de Oliveira <felipe.lopes.oliveira@ibm.com>'

_cell_length_a    9.781
_cell_length_b    11.905
_cell_length_c    15.22
_cell_angle_alpha 96.5
_cell_angle_beta  99.07
_cell_angle_gamma 112.41
_cell_volume      1588.51

_symmetry_cell_setting          triclinic
_symmetry_space_group_name_Hall 'P 1'
_symmetry_space_group_name_H-M  'P 1'
_symmetry_Int_Tables_number     1

_symmetry_equiv_pos_as_xyz 'x,y,z'

loop_
_atom_site_label
_atom_site_type_symbol
_atom_site_fract_x
_atom_site_fract_y
_atom_site_fract_z
_atom_site_charge
Zn       Zn     0.988730000000     0.570290000000     0.294850000000     0.404583   
Zn       Zn     0.890690000000     0.688270000000     0.670220000000     0.404583   
Zn       Zn     0.439130000000     0.604840000000     0.070460000000     0.404583   
Zn       Zn     0.011270000000     0.429710000000     0.705150000000     0.404583   
Zn       Zn     0.109310000000     0.311730000000     0.329780000000     0.404583   
Zn       Zn     0.560870000000     0.395160000000     0.929540000000     0.404583   
Zn       Zn     0.500000000000     0.500000000000     0.500000000000     0.404583   
H        H      0.308000000000     0.998700000000     0.823600000000     0.035066   
H        H      0.723100000000     0.039600000000     0.942500000000     0.035066   
H        H      0.656300000000     0.831800000000     0.895800000000     0.035066   
H        H      0.420300000000     0.708100000000     0.805500000000     0.035066   
H        H      0.804000000000     0.011400000000     0.665100000000     0.035066   
H        H      0.460500000000     0.113900000000     0.600300000000     0.035066   
H        H      0.291500000000     0.911100000000     0.577200000000     0.035066   
H        H      0.377000000000     0.755600000000     0.589500000000     0.035066   
H        H      0.172500000000     0.633100000000     0.146200000000     0.035066   
H        H      0.348000000000     0.403000000000     0.203700000000     0.035066   
H        H      0.071400000000     0.678400000000     0.514000000000     0.035066   
H        H      0.687400000000     0.461900000000     0.357400000000     0.035066   
H        H      0.708500000000     0.650400000000     0.235400000000     0.035066   
H        H      0.828500000000     0.430500000000     0.091100000000     0.035066   
H        H      0.692000000000     0.001300000000     0.176400000000     0.035066   
H        H      0.276900000000     0.960400000000     0.057500000000     0.035066   
H        H      0.343700000000     0.168200000000     0.104200000000     0.035066   
H        H      0.579700000000     0.291900000000     0.194500000000     0.035066   
H        H      0.196000000000     0.988600000000     0.334900000000     0.035066   
H        H      0.539500000000     0.886100000000     0.399700000000     0.035066   
H        H      0.708500000000     0.088900000000     0.422800000000     0.035066   
H        H      0.623000000000     0.244400000000     0.410500000000     0.035066   
H        H      0.827500000000     0.366900000000     0.853800000000     0.035066   
H        H      0.652000000000     0.597000000000     0.796300000000     0.035066   
H        H      0.928600000000     0.321600000000     0.486000000000     0.035066   
H        H      0.312600000000     0.538100000000     0.642600000000     0.035066   
H        H      0.291500000000     0.349600000000     0.764600000000     0.035066   
H        H      0.171500000000     0.569500000000     0.908900000000     0.035066   
C        C      0.339600000000     0.840700000000     0.806100000000     0.0737809  
C        C      0.379000000000     0.965500000000     0.837100000000     0.0737809  
C        C      0.522000000000     0.040900000000     0.887700000000     0.0737809  
C        C      0.626200000000     0.989700000000     0.908700000000     0.0737809  
C        C      0.586900000000     0.865800000000     0.879800000000     0.0737809  
C        C      0.444900000000     0.791300000000     0.826900000000     0.0737809  
C        C      0.187100000000     0.761000000000     0.747900000000     0.0737809  
C        C      0.564500000000     0.175400000000     0.916600000000     0.0737809  
C        C      0.600100000000     0.868500000000     0.628100000000     0.0737809  
C        C      0.701100000000     0.991000000000     0.645400000000     0.0737809  
C        C      0.651500000000     0.084300000000     0.634100000000     0.0737809  
C        C      0.495800000000     0.052600000000     0.607800000000     0.0737809  
C        C      0.395000000000     0.931200000000     0.593000000000     0.0737809  
C        C      0.445800000000     0.837900000000     0.601500000000     0.0737809  
C        C      0.657500000000     0.769500000000     0.636900000000     0.0737809  
C        C      0.761600000000     0.215100000000     0.645900000000     0.0737809  
C        C      0.193100000000     0.572100000000     0.171200000000     0.0737809  
C        C      0.288100000000     0.447800000000     0.202400000000     0.0737809  
C        C      0.968500000000     0.629900000000     0.492300000000     0.0737809  
C        C      0.760800000000     0.513400000000     0.407800000000     0.0737809  
C        C      0.711600000000     0.595900000000     0.187700000000     0.0737809  
C        C      0.776400000000     0.476600000000     0.109600000000     0.0737809  
C        C      0.660400000000     0.159300000000     0.193900000000     0.0737809  
C        C      0.621000000000     0.034500000000     0.162900000000     0.0737809  
C        C      0.478000000000     0.959100000000     0.112300000000     0.0737809  
C        C      0.373800000000     0.010300000000     0.091300000000     0.0737809  
C        C      0.413100000000     0.134200000000     0.120200000000     0.0737809  
C        C      0.555100000000     0.208700000000     0.173100000000     0.0737809  
C        C      0.812900000000     0.239000000000     0.252100000000     0.0737809  
C        C      0.435500000000     0.824600000000     0.083400000000     0.0737809  
C        C      0.399900000000     0.131500000000     0.371900000000     0.0737809  
C        C      0.298900000000     0.009000000000     0.354600000000     0.0737809  
C        C      0.348500000000     0.915700000000     0.365900000000     0.0737809  
C        C      0.504200000000     0.947400000000     0.392200000000     0.0737809  
C        C      0.605000000000     0.068800000000     0.407000000000     0.0737809  
C        C      0.554200000000     0.162100000000     0.398500000000     0.0737809  
C        C      0.342500000000     0.230500000000     0.363100000000     0.0737809  
C        C      0.238400000000     0.784900000000     0.354100000000     0.0737809  
C        C      0.806900000000     0.427900000000     0.828800000000     0.0737809  
C        C      0.711900000000     0.552200000000     0.797600000000     0.0737809  
C        C      0.031500000000     0.370100000000     0.507700000000     0.0737809  
C        C      0.239200000000     0.486600000000     0.592200000000     0.0737809  
C        C      0.288400000000     0.404100000000     0.812300000000     0.0737809  
C        C      0.223600000000     0.523400000000     0.890400000000     0.0737809  
N        N      0.183400000000     0.432100000000     0.249700000000    -0.143232   
N        N      0.121200000000     0.513900000000     0.228500000000    -0.143232   
N        N      0.299900000000     0.534700000000     0.152100000000    -0.143232   
N        N      0.866800000000     0.614700000000     0.541800000000    -0.143232   
N        N      0.729900000000     0.539100000000     0.485700000000    -0.143232   
N        N      0.907500000000     0.567700000000     0.407200000000    -0.143232   
N        N      0.816100000000     0.549200000000     0.191100000000    -0.143232   
N        N      0.655000000000     0.477700000000     0.058200000000    -0.143232   
N        N      0.612100000000     0.555700000000     0.108400000000    -0.143232   
N        N      0.816600000000     0.567900000000     0.750300000000    -0.143232   
N        N      0.878800000000     0.486100000000     0.771500000000    -0.143232   
N        N      0.700100000000     0.465300000000     0.847900000000    -0.143232   
N        N      0.133200000000     0.385300000000     0.458200000000    -0.143232   
N        N      0.270100000000     0.460900000000     0.514300000000    -0.143232   
N        N      0.092500000000     0.432300000000     0.592800000000    -0.143232   
N        N      0.183900000000     0.450800000000     0.808900000000    -0.143232   
N        N      0.345000000000     0.522300000000     0.941800000000    -0.143232   
N        N      0.387900000000     0.444300000000     0.891600000000    -0.143232   
O        O      0.153800000000     0.651200000000     0.718200000000    -0.280132   
O        O      0.094000000000     0.812000000000     0.730400000000    -0.280132   
O        O      0.463100000000     0.215900000000     0.894300000000    -0.280132   
O        O      0.694100000000     0.245400000000     0.957400000000    -0.280132   
O        O      0.570900000000     0.658200000000     0.614800000000    -0.280132   
O        O      0.798500000000     0.807000000000     0.668700000000    -0.280132   
O        O      0.893000000000     0.244900000000     0.695800000000    -0.280132   
O        O      0.727600000000     0.290400000000     0.607900000000    -0.280132   
O        O      0.846200000000     0.348800000000     0.281800000000    -0.280132   
O        O      0.906000000000     0.188000000000     0.269600000000    -0.280132   
O        O      0.536900000000     0.784100000000     0.105700000000    -0.280132   
O        O      0.305900000000     0.754600000000     0.042600000000    -0.280132   
O        O      0.429100000000     0.341800000000     0.385200000000    -0.280132   
O        O      0.201500000000     0.193000000000     0.331300000000    -0.280132   
O        O      0.107000000000     0.755100000000     0.304200000000    -0.280132   
O        O      0.272400000000     0.709600000000     0.392100000000    -0.280132   


