data_LADHEF_original

_audit_creation_method RASPA-1.0
_audit_creation_date 2022-1-29
_audit_author_name 'Felipe Lopes de Oliveira <felipe.lopes.oliveira@ibm.com>'

_cell_length_a    12.8377
_cell_length_b    12.8377
_cell_length_c    19.0457
_cell_angle_alpha 83.7766
_cell_angle_beta  83.7766
_cell_angle_gamma 68.7446
_cell_volume      2899.99

_symmetry_cell_setting          triclinic
_symmetry_space_group_name_Hall 'P 1'
_symmetry_space_group_name_H-M  'P 1'
_symmetry_Int_Tables_number     1

_symmetry_equiv_pos_as_xyz 'x,y,z'

loop_
_atom_site_label
_atom_site_type_symbol
_atom_site_fract_x
_atom_site_fract_y
_atom_site_fract_z
_atom_site_charge
Zn       Zn     0.723820000000     0.935700000000     0.774430000000     0.403803   
Zn       Zn     0.107910000000     0.712950000000     0.560220000000     0.403803   
Zn       Zn     0.064300000000     0.276180000000     0.725570000000     0.403803   
Zn       Zn     0.287050000000     0.892090000000     0.939780000000     0.403803   
Zn       Zn     0.276180000000     0.064300000000     0.225570000000     0.403803   
Zn       Zn     0.892090000000     0.287050000000     0.439780000000     0.403803   
Zn       Zn     0.935700000000     0.723820000000     0.274430000000     0.403803   
Zn       Zn     0.712950000000     0.107910000000     0.060220000000     0.403803   
Zn       Zn     0.893080000000     0.106920000000     0.750000000000     0.403803   
Zn       Zn     0.106920000000     0.893080000000     0.250000000000     0.403803   
H        H      0.648300000000     0.320300000000     0.623000000000     0.0324259  
H        H      0.513000000000     0.467200000000     0.567000000000     0.0324259  
H        H      0.413400000000     0.199000000000     0.710800000000     0.0324259  
H        H      0.855400000000     0.147800000000     0.917400000000     0.0324259  
H        H      0.670100000000     0.964100000000     0.945300000000     0.0324259  
H        H      0.077800000000     0.927400000000     0.644200000000     0.0324259  
H        H      0.880500000000     0.756500000000     0.662400000000     0.0324259  
H        H      0.679700000000     0.351700000000     0.877000000000     0.0324259  
H        H      0.532800000000     0.487000000000     0.933000000000     0.0324259  
H        H      0.801000000000     0.586600000000     0.789200000000     0.0324259  
H        H      0.852200000000     0.144600000000     0.582600000000     0.0324259  
H        H      0.035900000000     0.329900000000     0.554700000000     0.0324259  
H        H      0.072600000000     0.922200000000     0.855800000000     0.0324259  
H        H      0.243500000000     0.119500000000     0.837600000000     0.0324259  
H        H      0.351700000000     0.679700000000     0.377000000000     0.0324259  
H        H      0.487000000000     0.532800000000     0.433000000000     0.0324259  
H        H      0.586600000000     0.801000000000     0.289200000000     0.0324259  
H        H      0.144600000000     0.852200000000     0.082600000000     0.0324259  
H        H      0.329900000000     0.035900000000     0.054700000000     0.0324259  
H        H      0.922200000000     0.072600000000     0.355800000000     0.0324259  
H        H      0.119500000000     0.243500000000     0.337600000000     0.0324259  
H        H      0.320300000000     0.648300000000     0.123000000000     0.0324259  
H        H      0.467200000000     0.513000000000     0.067000000000     0.0324259  
H        H      0.199000000000     0.413400000000     0.210800000000     0.0324259  
H        H      0.147800000000     0.855400000000     0.417400000000     0.0324259  
H        H      0.964100000000     0.670100000000     0.445300000000     0.0324259  
H        H      0.927400000000     0.077800000000     0.144200000000     0.0324259  
H        H      0.756500000000     0.880500000000     0.162400000000     0.0324259  
C        C      0.634180000000     0.145120000000     0.705300000000     0.0950149  
C        C      0.545020000000     0.243060000000     0.671600000000     0.0950149  
C        C      0.573880000000     0.325080000000     0.629010000000     0.0950149  
C        C      0.492750000000     0.413150000000     0.595720000000     0.0950149  
C        C      0.380720000000     0.422060000000     0.604560000000     0.0950149  
C        C      0.350440000000     0.342460000000     0.649020000000     0.0950149  
C        C      0.433290000000     0.252870000000     0.681760000000     0.0950149  
C        C      0.295510000000     0.520930000000     0.567580000000     0.0950149  
C        C      0.231470000000     0.346410000000     0.660020000000     0.0950149  
C        C      0.817780000000     0.101020000000     0.909370000000     0.0950149  
C        C      0.717300000000     0.001160000000     0.924680000000     0.0950149  
C        C      0.018160000000     0.903160000000     0.658150000000     0.0950149  
C        C      0.911130000000     0.810290000000     0.667880000000     0.0950149  
C        C      0.854880000000     0.365820000000     0.794700000000     0.0950149  
C        C      0.756940000000     0.454980000000     0.828400000000     0.0950149  
C        C      0.674920000000     0.426120000000     0.870990000000     0.0950149  
C        C      0.586850000000     0.507250000000     0.904280000000     0.0950149  
C        C      0.577940000000     0.619280000000     0.895440000000     0.0950149  
C        C      0.657540000000     0.649560000000     0.850980000000     0.0950149  
C        C      0.747130000000     0.566710000000     0.818240000000     0.0950149  
C        C      0.479070000000     0.704490000000     0.932420000000     0.0950149  
C        C      0.653590000000     0.768530000000     0.839980000000     0.0950149  
C        C      0.898980000000     0.182220000000     0.590630000000     0.0950149  
C        C      0.998840000000     0.282700000000     0.575320000000     0.0950149  
C        C      0.096840000000     0.981840000000     0.841850000000     0.0950149  
C        C      0.189710000000     0.088870000000     0.832120000000     0.0950149  
C        C      0.365820000000     0.854880000000     0.294700000000     0.0950149  
C        C      0.454980000000     0.756940000000     0.328400000000     0.0950149  
C        C      0.426120000000     0.674920000000     0.370990000000     0.0950149  
C        C      0.507250000000     0.586850000000     0.404280000000     0.0950149  
C        C      0.619280000000     0.577940000000     0.395440000000     0.0950149  
C        C      0.649560000000     0.657540000000     0.350980000000     0.0950149  
C        C      0.566710000000     0.747130000000     0.318240000000     0.0950149  
C        C      0.704490000000     0.479070000000     0.432420000000     0.0950149  
C        C      0.768530000000     0.653590000000     0.339980000000     0.0950149  
C        C      0.182220000000     0.898980000000     0.090630000000     0.0950149  
C        C      0.282700000000     0.998840000000     0.075320000000     0.0950149  
C        C      0.981840000000     0.096840000000     0.341850000000     0.0950149  
C        C      0.088870000000     0.189710000000     0.332120000000     0.0950149  
C        C      0.145120000000     0.634180000000     0.205300000000     0.0950149  
C        C      0.243060000000     0.545020000000     0.171600000000     0.0950149  
C        C      0.325080000000     0.573880000000     0.129010000000     0.0950149  
C        C      0.413150000000     0.492750000000     0.095720000000     0.0950149  
C        C      0.422060000000     0.380720000000     0.104560000000     0.0950149  
C        C      0.342460000000     0.350440000000     0.149020000000     0.0950149  
C        C      0.252870000000     0.433290000000     0.181760000000     0.0950149  
C        C      0.520930000000     0.295510000000     0.067580000000     0.0950149  
C        C      0.346410000000     0.231470000000     0.160020000000     0.0950149  
C        C      0.101020000000     0.817780000000     0.409370000000     0.0950149  
C        C      0.001160000000     0.717300000000     0.424680000000     0.0950149  
C        C      0.903160000000     0.018160000000     0.158150000000     0.0950149  
C        C      0.810290000000     0.911130000000     0.167880000000     0.0950149  
N        N      0.820580000000     0.063520000000     0.847240000000    -0.141511   
N        N      0.755230000000     0.997870000000     0.857750000000    -0.141511   
N        N      0.754650000000     0.064490000000     0.959990000000    -0.141511   
N        N      0.935790000000     0.952130000000     0.704700000000    -0.141511   
N        N      0.865860000000     0.891720000000     0.710850000000    -0.141511   
N        N      0.006760000000     0.814020000000     0.632870000000    -0.141511   
N        N      0.936480000000     0.179420000000     0.652760000000    -0.141511   
N        N      0.002130000000     0.244770000000     0.642250000000    -0.141511   
N        N      0.935510000000     0.245350000000     0.540010000000    -0.141511   
N        N      0.047870000000     0.064210000000     0.795300000000    -0.141511   
N        N      0.108280000000     0.134140000000     0.789150000000    -0.141511   
N        N      0.185980000000     0.993240000000     0.867130000000    -0.141511   
N        N      0.179420000000     0.936480000000     0.152760000000    -0.141511   
N        N      0.244770000000     0.002130000000     0.142250000000    -0.141511   
N        N      0.245350000000     0.935510000000     0.040010000000    -0.141511   
N        N      0.064210000000     0.047870000000     0.295300000000    -0.141511   
N        N      0.134140000000     0.108280000000     0.289150000000    -0.141511   
N        N      0.993240000000     0.185980000000     0.367130000000    -0.141511   
N        N      0.063520000000     0.820580000000     0.347240000000    -0.141511   
N        N      0.997870000000     0.755230000000     0.357750000000    -0.141511   
N        N      0.064490000000     0.754650000000     0.459990000000    -0.141511   
N        N      0.952130000000     0.935790000000     0.204700000000    -0.141511   
N        N      0.891720000000     0.865860000000     0.210850000000    -0.141511   
N        N      0.814020000000     0.006760000000     0.132870000000    -0.141511   
O        O      0.727400000000     0.151540000000     0.708860000000    -0.270436   
O        O      0.606990000000     0.059970000000     0.727720000000    -0.270436   
O        O      0.232860000000     0.596140000000     0.606410000000    -0.270436   
O        O      0.293290000000     0.525130000000     0.502790000000    -0.270436   
O        O      0.165610000000     0.392670000000     0.614200000000    -0.270436   
O        O      0.207210000000     0.296650000000     0.717220000000    -0.270436   
O        O      0.848460000000     0.272600000000     0.791140000000    -0.270436   
O        O      0.940030000000     0.393010000000     0.772280000000    -0.270436   
O        O      0.403860000000     0.767140000000     0.893590000000    -0.270436   
O        O      0.474870000000     0.706710000000     0.997210000000    -0.270436   
O        O      0.607330000000     0.834390000000     0.885800000000    -0.270436   
O        O      0.703350000000     0.792790000000     0.782780000000    -0.270436   
O        O      0.272600000000     0.848460000000     0.291140000000    -0.270436   
O        O      0.393010000000     0.940030000000     0.272280000000    -0.270436   
O        O      0.767140000000     0.403860000000     0.393590000000    -0.270436   
O        O      0.706710000000     0.474870000000     0.497210000000    -0.270436   
O        O      0.834390000000     0.607330000000     0.385800000000    -0.270436   
O        O      0.792790000000     0.703350000000     0.282780000000    -0.270436   
O        O      0.151540000000     0.727400000000     0.208860000000    -0.270436   
O        O      0.059970000000     0.606990000000     0.227720000000    -0.270436   
O        O      0.596140000000     0.232860000000     0.106410000000    -0.270436   
O        O      0.525130000000     0.293290000000     0.002790000000    -0.270436   
O        O      0.392670000000     0.165610000000     0.114200000000    -0.270436   
O        O      0.296650000000     0.207210000000     0.217220000000    -0.270436   


