data_LAJDUV_original

_audit_creation_method RASPA-1.0
_audit_creation_date 2022-1-29
_audit_author_name 'Felipe Lopes de Oliveira <felipe.lopes.oliveira@ibm.com>'

_cell_length_a    8.935
_cell_length_b    8.935
_cell_length_c    10.878
_cell_angle_alpha 90
_cell_angle_beta  90
_cell_angle_gamma 120
_cell_volume      752.088

_symmetry_cell_setting          triclinic
_symmetry_space_group_name_Hall 'P 1'
_symmetry_space_group_name_H-M  'P 1'
_symmetry_Int_Tables_number     1

_symmetry_equiv_pos_as_xyz 'x,y,z'

loop_
_atom_site_label
_atom_site_type_symbol
_atom_site_fract_x
_atom_site_fract_y
_atom_site_fract_z
_atom_site_charge
Ti       Ti     0.500000000000     0.000000000000     0.666670000000     1.43344    
Ti       Ti     0.500000000000     0.500000000000     0.000000000000     1.43344    
Ti       Ti     0.000000000000     0.500000000000     0.333330000000     1.43344    
H        H      0.028200000000     0.109700000000     0.949400000000     0.138731   
H        H      0.971800000000     0.890300000000     0.949400000000     0.138731   
H        H      0.109700000000     0.028200000000     0.050600000000     0.138731   
H        H      0.890300000000     0.971800000000     0.050600000000     0.138731   
H        H      0.081500000000     0.971800000000     0.282730000000     0.138731   
H        H      0.918500000000     0.028200000000     0.282730000000     0.138731   
H        H      0.918500000000     0.890300000000     0.383930000000     0.138731   
H        H      0.081500000000     0.109700000000     0.383930000000     0.138731   
H        H      0.890300000000     0.918500000000     0.616070000000     0.138731   
H        H      0.109700000000     0.081500000000     0.616070000000     0.138731   
H        H      0.971800000000     0.081500000000     0.717270000000     0.138731   
H        H      0.028200000000     0.918500000000     0.717270000000     0.138731   
C        C      0.308000000000     0.692000000000     0.500000000000     0.265927   
C        C      0.210450000000     0.789550000000     0.500000000000     0.265927   
C        C      0.384000000000     0.692000000000     0.833330000000     0.265927   
C        C      0.579100000000     0.789550000000     0.833330000000     0.265927   
C        C      0.308000000000     0.616000000000     0.166670000000     0.265927   
C        C      0.210450000000     0.420900000000     0.166670000000     0.265927   
C        C      0.692000000000     0.308000000000     0.500000000000     0.265927   
C        C      0.789550000000     0.210450000000     0.500000000000     0.265927   
C        C      0.616000000000     0.308000000000     0.833330000000     0.265927   
C        C      0.420900000000     0.210450000000     0.833330000000     0.265927   
C        C      0.692000000000     0.384000000000     0.166670000000     0.265927   
C        C      0.789550000000     0.579100000000     0.166670000000     0.265927   
N        N      0.000000000000     0.000000000000     0.000000000000    -0.291753   
N        N      0.000000000000     0.000000000000     0.333330000000    -0.291753   
N        N      0.000000000000     0.000000000000     0.666670000000    -0.291753   
O        O      0.448900000000     0.762900000000     0.557000000000    -0.345039   
O        O      0.076800000000     0.727300000000     0.437200000000    -0.345039   
O        O      0.314000000000     0.551100000000     0.890330000000    -0.345039   
O        O      0.650500000000     0.923200000000     0.770530000000    -0.345039   
O        O      0.237100000000     0.686000000000     0.223670000000    -0.345039   
O        O      0.272700000000     0.349500000000     0.103870000000    -0.345039   
O        O      0.551100000000     0.237100000000     0.557000000000    -0.345039   
O        O      0.923200000000     0.272700000000     0.437200000000    -0.345039   
O        O      0.686000000000     0.448900000000     0.890330000000    -0.345039   
O        O      0.349500000000     0.076800000000     0.770530000000    -0.345039   
O        O      0.762900000000     0.314000000000     0.223670000000    -0.345039   
O        O      0.727300000000     0.650500000000     0.103870000000    -0.345039   
O        O      0.686000000000     0.237100000000     0.776330000000    -0.345039   
O        O      0.349500000000     0.272700000000     0.896130000000    -0.345039   
O        O      0.762900000000     0.448900000000     0.443000000000    -0.345039   
O        O      0.727300000000     0.076800000000     0.562800000000    -0.345039   
O        O      0.551100000000     0.314000000000     0.109670000000    -0.345039   
O        O      0.923200000000     0.650500000000     0.229470000000    -0.345039   
O        O      0.314000000000     0.762900000000     0.776330000000    -0.345039   
O        O      0.650500000000     0.727300000000     0.896130000000    -0.345039   
O        O      0.237100000000     0.551100000000     0.443000000000    -0.345039   
O        O      0.272700000000     0.923200000000     0.562800000000    -0.345039   
O        O      0.448900000000     0.686000000000     0.109670000000    -0.345039   
O        O      0.076800000000     0.349500000000     0.229470000000    -0.345039   


