data_LAJDUV01_original

_audit_creation_method RASPA-1.0
_audit_creation_date 2022-1-31
_audit_author_name 'Felipe Lopes de Oliveira <felipe.lopes.oliveira@ibm.com>'

_cell_length_a    8.939
_cell_length_b    8.939
_cell_length_c    10.893
_cell_angle_alpha 90
_cell_angle_beta  90
_cell_angle_gamma 120
_cell_volume      753.8

_symmetry_cell_setting          triclinic
_symmetry_space_group_name_Hall 'P 1'
_symmetry_space_group_name_H-M  'P 1'
_symmetry_Int_Tables_number     1

_symmetry_equiv_pos_as_xyz 'x,y,z'

loop_
_atom_site_label
_atom_site_type_symbol
_atom_site_fract_x
_atom_site_fract_y
_atom_site_fract_z
_atom_site_charge
Ti       Ti     0.000000000000     0.500000000000     0.166670000000     1.42787    
Ti       Ti     0.500000000000     0.000000000000     0.833330000000     1.42787    
Ti       Ti     0.500000000000     0.500000000000     0.500000000000     1.42787    
H        H      0.895680000000     0.911310000000     0.883790000000     0.139121   
H        H      0.104320000000     0.088690000000     0.883790000000     0.139121   
H        H      0.984370000000     0.088690000000     0.782880000000     0.139121   
H        H      0.015630000000     0.911310000000     0.782880000000     0.139121   
H        H      0.015630000000     0.104320000000     0.550460000000     0.139121   
H        H      0.984370000000     0.895680000000     0.550460000000     0.139121   
H        H      0.104320000000     0.015630000000     0.449540000000     0.139121   
H        H      0.895680000000     0.984370000000     0.449540000000     0.139121   
H        H      0.088690000000     0.984370000000     0.217120000000     0.139121   
H        H      0.911310000000     0.015630000000     0.217120000000     0.139121   
H        H      0.911310000000     0.895680000000     0.116210000000     0.139121   
H        H      0.088690000000     0.104320000000     0.116210000000     0.139121   
C        C      0.308250000000     0.616500000000     0.333330000000     0.261593   
C        C      0.210490000000     0.420980000000     0.333330000000     0.261593   
C        C      0.308250000000     0.691750000000     0.000000000000     0.261593   
C        C      0.210490000000     0.789510000000     0.000000000000     0.261593   
C        C      0.383500000000     0.691750000000     0.666670000000     0.261593   
C        C      0.579020000000     0.789510000000     0.666670000000     0.261593   
C        C      0.691750000000     0.383500000000     0.333330000000     0.261593   
C        C      0.789510000000     0.579020000000     0.333330000000     0.261593   
C        C      0.691750000000     0.308250000000     0.000000000000     0.261593   
C        C      0.789510000000     0.210490000000     0.000000000000     0.261593   
C        C      0.616500000000     0.308250000000     0.666670000000     0.261593   
C        C      0.420980000000     0.210490000000     0.666670000000     0.261593   
N        N      0.000000000000     0.000000000000     0.833330000000    -0.296385   
N        N      0.000000000000     0.000000000000     0.500000000000    -0.296385   
N        N      0.000000000000     0.000000000000     0.166670000000    -0.296385   
O        O      0.237040000000     0.686040000000     0.276350000000    -0.341792   
O        O      0.076110000000     0.348600000000     0.270130000000    -0.341792   
O        O      0.449000000000     0.762960000000     0.943020000000    -0.341792   
O        O      0.272490000000     0.923890000000     0.936800000000    -0.341792   
O        O      0.313960000000     0.551000000000     0.609680000000    -0.341792   
O        O      0.651400000000     0.727510000000     0.603460000000    -0.341792   
O        O      0.762960000000     0.313960000000     0.276350000000    -0.341792   
O        O      0.923890000000     0.651400000000     0.270130000000    -0.341792   
O        O      0.551000000000     0.237040000000     0.943020000000    -0.341792   
O        O      0.727510000000     0.076110000000     0.936800000000    -0.341792   
O        O      0.686040000000     0.449000000000     0.609680000000    -0.341792   
O        O      0.348600000000     0.272490000000     0.603460000000    -0.341792   
O        O      0.551000000000     0.313960000000     0.390320000000    -0.341792   
O        O      0.727510000000     0.651400000000     0.396540000000    -0.341792   
O        O      0.686040000000     0.237040000000     0.723650000000    -0.341792   
O        O      0.348600000000     0.076110000000     0.729870000000    -0.341792   
O        O      0.762960000000     0.449000000000     0.056980000000    -0.341792   
O        O      0.923890000000     0.272490000000     0.063200000000    -0.341792   
O        O      0.449000000000     0.686040000000     0.390320000000    -0.341792   
O        O      0.272490000000     0.348600000000     0.396540000000    -0.341792   
O        O      0.313960000000     0.762960000000     0.723650000000    -0.341792   
O        O      0.651400000000     0.923890000000     0.729870000000    -0.341792   
O        O      0.237040000000     0.551000000000     0.056980000000    -0.341792   
O        O      0.076110000000     0.727510000000     0.063200000000    -0.341792   


