data_LAJDUV02_original

_audit_creation_method RASPA-1.0
_audit_creation_date 2022-1-29
_audit_author_name 'Felipe Lopes de Oliveira <felipe.lopes.oliveira@ibm.com>'

_cell_length_a    8.931
_cell_length_b    8.931
_cell_length_c    10.893
_cell_angle_alpha 90
_cell_angle_beta  90
_cell_angle_gamma 120
_cell_volume      752.451

_symmetry_cell_setting          triclinic
_symmetry_space_group_name_Hall 'P 1'
_symmetry_space_group_name_H-M  'P 1'
_symmetry_Int_Tables_number     1

_symmetry_equiv_pos_as_xyz 'x,y,z'

loop_
_atom_site_label
_atom_site_type_symbol
_atom_site_fract_x
_atom_site_fract_y
_atom_site_fract_z
_atom_site_charge
Ti       Ti     0.000000000000     0.500000000000     0.166670000000     1.42953    
Ti       Ti     0.500000000000     0.000000000000     0.833330000000     1.42953    
Ti       Ti     0.500000000000     0.500000000000     0.500000000000     1.42953    
H        H      0.893860000000     0.913890000000     0.883610000000     0.140298   
H        H      0.106140000000     0.086110000000     0.883610000000     0.140298   
H        H      0.979970000000     0.086110000000     0.783060000000     0.140298   
H        H      0.020030000000     0.913890000000     0.783060000000     0.140298   
H        H      0.020030000000     0.106140000000     0.550280000000     0.140298   
H        H      0.979970000000     0.893860000000     0.550280000000     0.140298   
H        H      0.106140000000     0.020030000000     0.449720000000     0.140298   
H        H      0.893860000000     0.979970000000     0.449720000000     0.140298   
H        H      0.086110000000     0.979970000000     0.216940000000     0.140298   
H        H      0.913890000000     0.020030000000     0.216940000000     0.140298   
H        H      0.913890000000     0.893860000000     0.116390000000     0.140298   
H        H      0.086110000000     0.106140000000     0.116390000000     0.140298   
C        C      0.308370000000     0.616740000000     0.333330000000     0.260439   
C        C      0.210250000000     0.420500000000     0.333330000000     0.260439   
C        C      0.308370000000     0.691630000000     0.000000000000     0.260439   
C        C      0.210250000000     0.789750000000     0.000000000000     0.260439   
C        C      0.383260000000     0.691630000000     0.666670000000     0.260439   
C        C      0.579500000000     0.789750000000     0.666670000000     0.260439   
C        C      0.691630000000     0.383260000000     0.333330000000     0.260439   
C        C      0.789750000000     0.579500000000     0.333330000000     0.260439   
C        C      0.691630000000     0.308370000000     0.000000000000     0.260439   
C        C      0.789750000000     0.210250000000     0.000000000000     0.260439   
C        C      0.616740000000     0.308370000000     0.666670000000     0.260439   
C        C      0.420500000000     0.210250000000     0.666670000000     0.260439   
N        N      0.000000000000     0.000000000000     0.833330000000    -0.298381   
N        N      0.000000000000     0.000000000000     0.500000000000    -0.298381   
N        N      0.000000000000     0.000000000000     0.166670000000    -0.298381   
O        O      0.237130000000     0.686510000000     0.276150000000    -0.341762   
O        O      0.075380000000     0.348110000000     0.270090000000    -0.341762   
O        O      0.449380000000     0.762870000000     0.942820000000    -0.341762   
O        O      0.272730000000     0.924620000000     0.936760000000    -0.341762   
O        O      0.313490000000     0.550620000000     0.609480000000    -0.341762   
O        O      0.651890000000     0.727270000000     0.603420000000    -0.341762   
O        O      0.762870000000     0.313490000000     0.276150000000    -0.341762   
O        O      0.924620000000     0.651890000000     0.270090000000    -0.341762   
O        O      0.550620000000     0.237130000000     0.942820000000    -0.341762   
O        O      0.727270000000     0.075380000000     0.936760000000    -0.341762   
O        O      0.686510000000     0.449380000000     0.609480000000    -0.341762   
O        O      0.348110000000     0.272730000000     0.603420000000    -0.341762   
O        O      0.550620000000     0.313490000000     0.390520000000    -0.341762   
O        O      0.727270000000     0.651890000000     0.396580000000    -0.341762   
O        O      0.686510000000     0.237130000000     0.723850000000    -0.341762   
O        O      0.348110000000     0.075380000000     0.729910000000    -0.341762   
O        O      0.762870000000     0.449380000000     0.057180000000    -0.341762   
O        O      0.924620000000     0.272730000000     0.063240000000    -0.341762   
O        O      0.449380000000     0.686510000000     0.390520000000    -0.341762   
O        O      0.272730000000     0.348110000000     0.396580000000    -0.341762   
O        O      0.313490000000     0.762870000000     0.723850000000    -0.341762   
O        O      0.651890000000     0.924620000000     0.729910000000    -0.341762   
O        O      0.237130000000     0.550620000000     0.057180000000    -0.341762   
O        O      0.075380000000     0.727270000000     0.063240000000    -0.341762   


