data_LAWGEW_original

_audit_creation_method RASPA-1.0
_audit_creation_date 2022-1-30
_audit_author_name 'Felipe Lopes de Oliveira <felipe.lopes.oliveira@ibm.com>'

_cell_length_a    18.283
_cell_length_b    18.283
_cell_length_c    18.283
_cell_angle_alpha 60
_cell_angle_beta  60
_cell_angle_gamma 60
_cell_volume      4321.43

_symmetry_cell_setting          triclinic
_symmetry_space_group_name_Hall 'P 1'
_symmetry_space_group_name_H-M  'P 1'
_symmetry_Int_Tables_number     1

_symmetry_equiv_pos_as_xyz 'x,y,z'

loop_
_atom_site_label
_atom_site_type_symbol
_atom_site_fract_x
_atom_site_fract_y
_atom_site_fract_z
_atom_site_charge
Zn       Zn     0.206570000000     0.380310000000     0.206560000000     0.476042   
Zn       Zn     0.380320000000     0.206560000000     0.206560000000     0.476042   
Zn       Zn     0.206570000000     0.206560000000     0.206560000000     0.476042   
Zn       Zn     0.206570000000     0.206560000000     0.380310000000     0.476042   
Zn       Zn     0.619680000000     0.793440000000     0.793440000000     0.476042   
Zn       Zn     0.793430000000     0.619690000000     0.793440000000     0.476042   
Zn       Zn     0.793430000000     0.793440000000     0.793440000000     0.476042   
Zn       Zn     0.793430000000     0.793440000000     0.619690000000     0.476042   
H        H      0.045000000000     0.565400000000     0.045000000000     0.0597677  
H        H      0.565400000000     0.045000000000     0.344600000000     0.0597677  
H        H      0.045000000000     0.344600000000     0.045000000000     0.0597677  
H        H      0.344600000000     0.045000000000     0.565400000000     0.0597677  
H        H      0.045000000000     0.045000000000     0.344600000000     0.0597677  
H        H      0.565400000000     0.344600000000     0.045000000000     0.0597677  
H        H      0.045000000000     0.045000000000     0.565400000000     0.0597677  
H        H      0.344600000000     0.565400000000     0.045000000000     0.0597677  
H        H      0.045000000000     0.344600000000     0.565400000000     0.0597677  
H        H      0.565400000000     0.045000000000     0.045000000000     0.0597677  
H        H      0.045000000000     0.565400000000     0.344600000000     0.0597677  
H        H      0.344600000000     0.045000000000     0.045000000000     0.0597677  
H        H      0.434600000000     0.955000000000     0.955000000000     0.0597677  
H        H      0.955000000000     0.434600000000     0.655400000000     0.0597677  
H        H      0.655400000000     0.955000000000     0.955000000000     0.0597677  
H        H      0.955000000000     0.655400000000     0.434600000000     0.0597677  
H        H      0.955000000000     0.955000000000     0.655400000000     0.0597677  
H        H      0.655400000000     0.434600000000     0.955000000000     0.0597677  
H        H      0.955000000000     0.955000000000     0.434600000000     0.0597677  
H        H      0.434600000000     0.655400000000     0.955000000000     0.0597677  
H        H      0.655400000000     0.955000000000     0.434600000000     0.0597677  
H        H      0.955000000000     0.434600000000     0.955000000000     0.0597677  
H        H      0.434600000000     0.955000000000     0.655400000000     0.0597677  
H        H      0.955000000000     0.655400000000     0.955000000000     0.0597677  
C        C      0.026700000000     0.538640000000     0.026700000000     0.0589537  
C        C      0.538640000000     0.026700000000     0.407960000000     0.0589537  
C        C      0.026700000000     0.407960000000     0.026700000000     0.0589537  
C        C      0.407960000000     0.026700000000     0.538640000000     0.0589537  
C        C      0.026700000000     0.026700000000     0.407960000000     0.0589537  
C        C      0.538640000000     0.407960000000     0.026700000000     0.0589537  
C        C      0.026700000000     0.026700000000     0.538640000000     0.0589537  
C        C      0.407960000000     0.538640000000     0.026700000000     0.0589537  
C        C      0.026700000000     0.407960000000     0.538640000000     0.0589537  
C        C      0.538640000000     0.026700000000     0.026700000000     0.0589537  
C        C      0.026700000000     0.538640000000     0.407960000000     0.0589537  
C        C      0.407960000000     0.026700000000     0.026700000000     0.0589537  
C        C      0.461360000000     0.973300000000     0.973300000000     0.0589537  
C        C      0.973300000000     0.461360000000     0.592040000000     0.0589537  
C        C      0.592040000000     0.973300000000     0.973300000000     0.0589537  
C        C      0.973300000000     0.592040000000     0.461360000000     0.0589537  
C        C      0.973300000000     0.973300000000     0.592040000000     0.0589537  
C        C      0.592040000000     0.461360000000     0.973300000000     0.0589537  
C        C      0.973300000000     0.973300000000     0.461360000000     0.0589537  
C        C      0.461360000000     0.592040000000     0.973300000000     0.0589537  
C        C      0.592040000000     0.973300000000     0.461360000000     0.0589537  
C        C      0.973300000000     0.461360000000     0.973300000000     0.0589537  
C        C      0.461360000000     0.973300000000     0.592040000000     0.0589537  
C        C      0.973300000000     0.592040000000     0.973300000000     0.0589537  
C        C      0.111480000000     0.388520000000     0.111480000000     0.0589537  
C        C      0.053720000000     0.446280000000     0.053720000000     0.0589537  
C        C      0.388520000000     0.111480000000     0.388520000000     0.0589537  
C        C      0.446280000000     0.053720000000     0.446280000000     0.0589537  
C        C      0.111480000000     0.111480000000     0.388520000000     0.0589537  
C        C      0.053720000000     0.053720000000     0.446280000000     0.0589537  
C        C      0.388520000000     0.388520000000     0.111480000000     0.0589537  
C        C      0.446280000000     0.446280000000     0.053720000000     0.0589537  
C        C      0.111480000000     0.388520000000     0.388520000000     0.0589537  
C        C      0.053720000000     0.446280000000     0.446280000000     0.0589537  
C        C      0.388520000000     0.111480000000     0.111480000000     0.0589537  
C        C      0.446280000000     0.053720000000     0.053720000000     0.0589537  
C        C      0.611480000000     0.888520000000     0.888520000000     0.0589537  
C        C      0.553720000000     0.946280000000     0.946280000000     0.0589537  
C        C      0.888520000000     0.611480000000     0.611480000000     0.0589537  
C        C      0.946280000000     0.553720000000     0.553720000000     0.0589537  
C        C      0.888520000000     0.888520000000     0.611480000000     0.0589537  
C        C      0.946280000000     0.946280000000     0.553720000000     0.0589537  
C        C      0.611480000000     0.611480000000     0.888520000000     0.0589537  
C        C      0.553720000000     0.553720000000     0.946280000000     0.0589537  
C        C      0.611480000000     0.888520000000     0.611480000000     0.0589537  
C        C      0.553720000000     0.946280000000     0.553720000000     0.0589537  
C        C      0.888520000000     0.611480000000     0.888520000000     0.0589537  
C        C      0.946280000000     0.553720000000     0.946280000000     0.0589537  
O        O      0.250000000000     0.250000000000     0.250000000000    -0.310482   
O        O      0.750000000000     0.750000000000     0.750000000000    -0.310482   
O        O      0.133730000000     0.427510000000     0.133730000000    -0.310482   
O        O      0.427510000000     0.133730000000     0.305030000000    -0.310482   
O        O      0.133730000000     0.305030000000     0.133730000000    -0.310482   
O        O      0.305030000000     0.133730000000     0.427510000000    -0.310482   
O        O      0.133730000000     0.133730000000     0.305030000000    -0.310482   
O        O      0.427510000000     0.305030000000     0.133730000000    -0.310482   
O        O      0.133730000000     0.133730000000     0.427510000000    -0.310482   
O        O      0.305030000000     0.427510000000     0.133730000000    -0.310482   
O        O      0.133730000000     0.305030000000     0.427510000000    -0.310482   
O        O      0.427510000000     0.133730000000     0.133730000000    -0.310482   
O        O      0.133730000000     0.427510000000     0.305030000000    -0.310482   
O        O      0.305030000000     0.133730000000     0.133730000000    -0.310482   
O        O      0.572490000000     0.866270000000     0.866270000000    -0.310482   
O        O      0.866270000000     0.572490000000     0.694970000000    -0.310482   
O        O      0.694970000000     0.866270000000     0.866270000000    -0.310482   
O        O      0.866270000000     0.694970000000     0.572490000000    -0.310482   
O        O      0.866270000000     0.866270000000     0.694970000000    -0.310482   
O        O      0.694970000000     0.572490000000     0.866270000000    -0.310482   
O        O      0.866270000000     0.866270000000     0.572490000000    -0.310482   
O        O      0.572490000000     0.694970000000     0.866270000000    -0.310482   
O        O      0.694970000000     0.866270000000     0.572490000000    -0.310482   
O        O      0.866270000000     0.572490000000     0.866270000000    -0.310482   
O        O      0.572490000000     0.866270000000     0.694970000000    -0.310482   
O        O      0.866270000000     0.694970000000     0.866270000000    -0.310482   


