data_LAWGOG_original

_audit_creation_method RASPA-1.0
_audit_creation_date 2022-1-30
_audit_author_name 'Felipe Lopes de Oliveira <felipe.lopes.oliveira@ibm.com>'

_cell_length_a    18.3063
_cell_length_b    18.3063
_cell_length_c    18.3063
_cell_angle_alpha 60
_cell_angle_beta  60
_cell_angle_gamma 60
_cell_volume      4337.97

_symmetry_cell_setting          triclinic
_symmetry_space_group_name_Hall 'P 1'
_symmetry_space_group_name_H-M  'P 1'
_symmetry_Int_Tables_number     1

_symmetry_equiv_pos_as_xyz 'x,y,z'

loop_
_atom_site_label
_atom_site_type_symbol
_atom_site_fract_x
_atom_site_fract_y
_atom_site_fract_z
_atom_site_charge
Zn       Zn     0.206640000000     0.380060000000     0.206650000000     0.473632   
Zn       Zn     0.380050000000     0.206650000000     0.206650000000     0.473632   
Zn       Zn     0.206640000000     0.206650000000     0.206650000000     0.473632   
Zn       Zn     0.206640000000     0.206650000000     0.380060000000     0.473632   
Zn       Zn     0.619950000000     0.793350000000     0.793350000000     0.473632   
Zn       Zn     0.793360000000     0.619940000000     0.793350000000     0.473632   
Zn       Zn     0.793360000000     0.793350000000     0.793350000000     0.473632   
Zn       Zn     0.793360000000     0.793350000000     0.619940000000     0.473632   
H        H      0.045200000000     0.565600000000     0.045200000000     0.0601661  
H        H      0.565600000000     0.045200000000     0.344000000000     0.0601661  
H        H      0.045200000000     0.344000000000     0.045200000000     0.0601661  
H        H      0.344000000000     0.045200000000     0.565600000000     0.0601661  
H        H      0.045200000000     0.045200000000     0.344000000000     0.0601661  
H        H      0.565600000000     0.344000000000     0.045200000000     0.0601661  
H        H      0.045200000000     0.045200000000     0.565600000000     0.0601661  
H        H      0.344000000000     0.565600000000     0.045200000000     0.0601661  
H        H      0.045200000000     0.344000000000     0.565600000000     0.0601661  
H        H      0.565600000000     0.045200000000     0.045200000000     0.0601661  
H        H      0.045200000000     0.565600000000     0.344000000000     0.0601661  
H        H      0.344000000000     0.045200000000     0.045200000000     0.0601661  
H        H      0.434400000000     0.954800000000     0.954800000000     0.0601661  
H        H      0.954800000000     0.434400000000     0.656000000000     0.0601661  
H        H      0.656000000000     0.954800000000     0.954800000000     0.0601661  
H        H      0.954800000000     0.656000000000     0.434400000000     0.0601661  
H        H      0.954800000000     0.954800000000     0.656000000000     0.0601661  
H        H      0.656000000000     0.434400000000     0.954800000000     0.0601661  
H        H      0.954800000000     0.954800000000     0.434400000000     0.0601661  
H        H      0.434400000000     0.656000000000     0.954800000000     0.0601661  
H        H      0.656000000000     0.954800000000     0.434400000000     0.0601661  
H        H      0.954800000000     0.434400000000     0.954800000000     0.0601661  
H        H      0.434400000000     0.954800000000     0.656000000000     0.0601661  
H        H      0.954800000000     0.656000000000     0.954800000000     0.0601661  
C        C      0.026830000000     0.539050000000     0.026830000000     0.0578748  
C        C      0.539050000000     0.026830000000     0.407290000000     0.0578748  
C        C      0.026830000000     0.407290000000     0.026830000000     0.0578748  
C        C      0.407290000000     0.026830000000     0.539050000000     0.0578748  
C        C      0.026830000000     0.026830000000     0.407290000000     0.0578748  
C        C      0.539050000000     0.407290000000     0.026830000000     0.0578748  
C        C      0.026830000000     0.026830000000     0.539050000000     0.0578748  
C        C      0.407290000000     0.539050000000     0.026830000000     0.0578748  
C        C      0.026830000000     0.407290000000     0.539050000000     0.0578748  
C        C      0.539050000000     0.026830000000     0.026830000000     0.0578748  
C        C      0.026830000000     0.539050000000     0.407290000000     0.0578748  
C        C      0.407290000000     0.026830000000     0.026830000000     0.0578748  
C        C      0.460950000000     0.973170000000     0.973170000000     0.0578748  
C        C      0.973170000000     0.460950000000     0.592710000000     0.0578748  
C        C      0.592710000000     0.973170000000     0.973170000000     0.0578748  
C        C      0.973170000000     0.592710000000     0.460950000000     0.0578748  
C        C      0.973170000000     0.973170000000     0.592710000000     0.0578748  
C        C      0.592710000000     0.460950000000     0.973170000000     0.0578748  
C        C      0.973170000000     0.973170000000     0.460950000000     0.0578748  
C        C      0.460950000000     0.592710000000     0.973170000000     0.0578748  
C        C      0.592710000000     0.973170000000     0.460950000000     0.0578748  
C        C      0.973170000000     0.460950000000     0.973170000000     0.0578748  
C        C      0.460950000000     0.973170000000     0.592710000000     0.0578748  
C        C      0.973170000000     0.592710000000     0.973170000000     0.0578748  
C        C      0.111440000000     0.388560000000     0.111440000000     0.0578748  
C        C      0.053810000000     0.446190000000     0.053810000000     0.0578748  
C        C      0.388560000000     0.111440000000     0.388560000000     0.0578748  
C        C      0.446190000000     0.053810000000     0.446190000000     0.0578748  
C        C      0.111440000000     0.111440000000     0.388560000000     0.0578748  
C        C      0.053810000000     0.053810000000     0.446190000000     0.0578748  
C        C      0.388560000000     0.388560000000     0.111440000000     0.0578748  
C        C      0.446190000000     0.446190000000     0.053810000000     0.0578748  
C        C      0.111440000000     0.388560000000     0.388560000000     0.0578748  
C        C      0.053810000000     0.446190000000     0.446190000000     0.0578748  
C        C      0.388560000000     0.111440000000     0.111440000000     0.0578748  
C        C      0.446190000000     0.053810000000     0.053810000000     0.0578748  
C        C      0.611440000000     0.888560000000     0.888560000000     0.0578748  
C        C      0.553810000000     0.946190000000     0.946190000000     0.0578748  
C        C      0.888560000000     0.611440000000     0.611440000000     0.0578748  
C        C      0.946190000000     0.553810000000     0.553810000000     0.0578748  
C        C      0.888560000000     0.888560000000     0.611440000000     0.0578748  
C        C      0.946190000000     0.946190000000     0.553810000000     0.0578748  
C        C      0.611440000000     0.611440000000     0.888560000000     0.0578748  
C        C      0.553810000000     0.553810000000     0.946190000000     0.0578748  
C        C      0.611440000000     0.888560000000     0.611440000000     0.0578748  
C        C      0.553810000000     0.946190000000     0.553810000000     0.0578748  
C        C      0.888560000000     0.611440000000     0.888560000000     0.0578748  
C        C      0.946190000000     0.553810000000     0.946190000000     0.0578748  
O        O      0.250000000000     0.250000000000     0.250000000000    -0.308116   
O        O      0.750000000000     0.750000000000     0.750000000000    -0.308116   
O        O      0.133680000000     0.427680000000     0.133680000000    -0.308116   
O        O      0.427680000000     0.133680000000     0.304960000000    -0.308116   
O        O      0.133680000000     0.304960000000     0.133680000000    -0.308116   
O        O      0.304960000000     0.133680000000     0.427680000000    -0.308116   
O        O      0.133680000000     0.133680000000     0.304960000000    -0.308116   
O        O      0.427680000000     0.304960000000     0.133680000000    -0.308116   
O        O      0.133680000000     0.133680000000     0.427680000000    -0.308116   
O        O      0.304960000000     0.427680000000     0.133680000000    -0.308116   
O        O      0.133680000000     0.304960000000     0.427680000000    -0.308116   
O        O      0.427680000000     0.133680000000     0.133680000000    -0.308116   
O        O      0.133680000000     0.427680000000     0.304960000000    -0.308116   
O        O      0.304960000000     0.133680000000     0.133680000000    -0.308116   
O        O      0.572320000000     0.866320000000     0.866320000000    -0.308116   
O        O      0.866320000000     0.572320000000     0.695040000000    -0.308116   
O        O      0.695040000000     0.866320000000     0.866320000000    -0.308116   
O        O      0.866320000000     0.695040000000     0.572320000000    -0.308116   
O        O      0.866320000000     0.866320000000     0.695040000000    -0.308116   
O        O      0.695040000000     0.572320000000     0.866320000000    -0.308116   
O        O      0.866320000000     0.866320000000     0.572320000000    -0.308116   
O        O      0.572320000000     0.695040000000     0.866320000000    -0.308116   
O        O      0.695040000000     0.866320000000     0.572320000000    -0.308116   
O        O      0.866320000000     0.572320000000     0.866320000000    -0.308116   
O        O      0.572320000000     0.866320000000     0.695040000000    -0.308116   
O        O      0.866320000000     0.695040000000     0.866320000000    -0.308116   


