data_LEGGOU_original

_audit_creation_method RASPA-1.0
_audit_creation_date 2022-1-31
_audit_author_name 'Felipe Lopes de Oliveira <felipe.lopes.oliveira@ibm.com>'

_cell_length_a    10.192
_cell_length_b    17.764
_cell_length_c    24.437
_cell_angle_alpha 90
_cell_angle_beta  91.19
_cell_angle_gamma 90
_cell_volume      4423.38

_symmetry_cell_setting          triclinic
_symmetry_space_group_name_Hall 'P 1'
_symmetry_space_group_name_H-M  'P 1'
_symmetry_Int_Tables_number     1

_symmetry_equiv_pos_as_xyz 'x,y,z'

loop_
_atom_site_label
_atom_site_type_symbol
_atom_site_fract_x
_atom_site_fract_y
_atom_site_fract_z
_atom_site_charge
Zn       Zn     0.388110000000     0.602630000000     0.961900000000     0.404098   
Zn       Zn     0.887470000000     0.562540000000     0.833310000000     0.404098   
Zn       Zn     0.869340000000     0.755420000000     0.871820000000     0.404098   
Zn       Zn     0.351370000000     0.898050000000     0.774750000000     0.404098   
Zn       Zn     0.854680000000     0.950710000000     0.904700000000     0.404098   
Zn       Zn     0.888110000000     0.897370000000     0.461900000000     0.404098   
Zn       Zn     0.387470000000     0.937460000000     0.333310000000     0.404098   
Zn       Zn     0.369340000000     0.744580000000     0.371820000000     0.404098   
Zn       Zn     0.851370000000     0.601950000000     0.274750000000     0.404098   
Zn       Zn     0.354680000000     0.549290000000     0.404700000000     0.404098   
Zn       Zn     0.111890000000     0.102630000000     0.538100000000     0.404098   
Zn       Zn     0.612530000000     0.062540000000     0.666690000000     0.404098   
Zn       Zn     0.630660000000     0.255420000000     0.628180000000     0.404098   
Zn       Zn     0.148630000000     0.398050000000     0.725250000000     0.404098   
Zn       Zn     0.645320000000     0.450710000000     0.595300000000     0.404098   
Zn       Zn     0.611890000000     0.397370000000     0.038100000000     0.404098   
Zn       Zn     0.112530000000     0.437460000000     0.166690000000     0.404098   
Zn       Zn     0.130660000000     0.244580000000     0.128180000000     0.404098   
Zn       Zn     0.648630000000     0.101950000000     0.225250000000     0.404098   
Zn       Zn     0.145320000000     0.049290000000     0.095300000000     0.404098   
H        H      0.172500000000     0.528900000000     0.888900000000     0.0390483  
H        H      0.160900000000     0.733500000000     0.944200000000     0.0390483  
H        H      0.146200000000     0.777200000000     0.809400000000     0.0390483  
H        H      0.141800000000     0.988300000000     0.850600000000     0.0390483  
H        H      0.592400000000     0.725900000000     0.932200000000     0.0390483  
H        H      0.602100000000     0.518300000000     0.884500000000     0.0390483  
H        H      0.573800000000     0.771700000000     0.802800000000     0.0390483  
H        H      0.573300000000     0.982800000000     0.841000000000     0.0390483  
H        H      0.468000000000     0.892800000000     0.154000000000     0.0390483  
H        H      0.445800000000     0.692200000000     0.228000000000     0.0390483  
H        H      0.451800000000     0.633200000000     0.143800000000     0.0390483  
H        H      0.467300000000     0.833200000000     0.069300000000     0.0390483  
H        H      0.785000000000     0.704100000000     0.015500000000     0.0390483  
H        H      0.799000000000     0.909100000000     0.084800000000     0.0390483  
H        H      0.793500000000     0.853400000000     0.169900000000     0.0390483  
H        H      0.779900000000     0.649400000000     0.101300000000     0.0390483  
H        H      0.867000000000     0.325400000000     0.793800000000     0.0390483  
H        H      0.900700000000     0.318900000000     0.957600000000     0.0390483  
H        H      0.860800000000     0.196000000000     0.791200000000     0.0390483  
H        H      0.887600000000     0.189500000000     0.955000000000     0.0390483  
H        H      0.672500000000     0.971100000000     0.388900000000     0.0390483  
H        H      0.660900000000     0.766500000000     0.444200000000     0.0390483  
H        H      0.646200000000     0.722800000000     0.309400000000     0.0390483  
H        H      0.641800000000     0.511700000000     0.350600000000     0.0390483  
H        H      0.092400000000     0.774100000000     0.432200000000     0.0390483  
H        H      0.102100000000     0.981700000000     0.384500000000     0.0390483  
H        H      0.073800000000     0.728300000000     0.302800000000     0.0390483  
H        H      0.073300000000     0.517200000000     0.341000000000     0.0390483  
H        H      0.968000000000     0.607200000000     0.654000000000     0.0390483  
H        H      0.945800000000     0.807800000000     0.728000000000     0.0390483  
H        H      0.951800000000     0.866800000000     0.643800000000     0.0390483  
H        H      0.967300000000     0.666800000000     0.569300000000     0.0390483  
H        H      0.285000000000     0.795900000000     0.515500000000     0.0390483  
H        H      0.299000000000     0.590900000000     0.584800000000     0.0390483  
H        H      0.293500000000     0.646600000000     0.669900000000     0.0390483  
H        H      0.279900000000     0.850600000000     0.601300000000     0.0390483  
H        H      0.367000000000     0.174600000000     0.293800000000     0.0390483  
H        H      0.400700000000     0.181100000000     0.457600000000     0.0390483  
H        H      0.360800000000     0.304000000000     0.291200000000     0.0390483  
H        H      0.387600000000     0.310500000000     0.455000000000     0.0390483  
H        H      0.327500000000     0.028900000000     0.611100000000     0.0390483  
H        H      0.339100000000     0.233500000000     0.555800000000     0.0390483  
H        H      0.353800000000     0.277200000000     0.690600000000     0.0390483  
H        H      0.358200000000     0.488300000000     0.649400000000     0.0390483  
H        H      0.907600000000     0.225900000000     0.567800000000     0.0390483  
H        H      0.897900000000     0.018300000000     0.615500000000     0.0390483  
H        H      0.926200000000     0.271700000000     0.697200000000     0.0390483  
H        H      0.926700000000     0.482800000000     0.659000000000     0.0390483  
H        H      0.032000000000     0.392800000000     0.346000000000     0.0390483  
H        H      0.054200000000     0.192200000000     0.272000000000     0.0390483  
H        H      0.048200000000     0.133200000000     0.356200000000     0.0390483  
H        H      0.032700000000     0.333200000000     0.430700000000     0.0390483  
H        H      0.715000000000     0.204100000000     0.484500000000     0.0390483  
H        H      0.701000000000     0.409100000000     0.415200000000     0.0390483  
H        H      0.706500000000     0.353400000000     0.330100000000     0.0390483  
H        H      0.720100000000     0.149400000000     0.398700000000     0.0390483  
H        H      0.633000000000     0.825400000000     0.706200000000     0.0390483  
H        H      0.599300000000     0.818900000000     0.542400000000     0.0390483  
H        H      0.639200000000     0.696000000000     0.708800000000     0.0390483  
H        H      0.612400000000     0.689500000000     0.545000000000     0.0390483  
H        H      0.827500000000     0.471100000000     0.111100000000     0.0390483  
H        H      0.839100000000     0.266500000000     0.055800000000     0.0390483  
H        H      0.853800000000     0.222800000000     0.190600000000     0.0390483  
H        H      0.858200000000     0.011700000000     0.149400000000     0.0390483  
H        H      0.407600000000     0.274100000000     0.067800000000     0.0390483  
H        H      0.397900000000     0.481700000000     0.115500000000     0.0390483  
H        H      0.426200000000     0.228300000000     0.197200000000     0.0390483  
H        H      0.426700000000     0.017200000000     0.159000000000     0.0390483  
H        H      0.532000000000     0.107200000000     0.846000000000     0.0390483  
H        H      0.554200000000     0.307800000000     0.772000000000     0.0390483  
H        H      0.548200000000     0.366800000000     0.856200000000     0.0390483  
H        H      0.532700000000     0.166800000000     0.930700000000     0.0390483  
H        H      0.215000000000     0.295900000000     0.984500000000     0.0390483  
H        H      0.201000000000     0.090900000000     0.915200000000     0.0390483  
H        H      0.206500000000     0.146600000000     0.830100000000     0.0390483  
H        H      0.220100000000     0.350600000000     0.898700000000     0.0390483  
H        H      0.133000000000     0.674600000000     0.206200000000     0.0390483  
H        H      0.099300000000     0.681100000000     0.042400000000     0.0390483  
H        H      0.139200000000     0.804000000000     0.208800000000     0.0390483  
H        H      0.112400000000     0.810500000000     0.045000000000     0.0390483  
C        C      0.145500000000     0.577800000000     0.896300000000     0.0684816  
C        C      0.139000000000     0.689000000000     0.926200000000     0.0684816  
C        C      0.121200000000     0.823300000000     0.824000000000     0.0684816  
C        C      0.118500000000     0.938000000000     0.846700000000     0.0684816  
C        C      0.618400000000     0.681200000000     0.915950000000     0.0684816  
C        C      0.623600000000     0.568600000000     0.890100000000     0.0684816  
C        C      0.599000000000     0.818400000000     0.816560000000     0.0684816  
C        C      0.598100000000     0.932700000000     0.837300000000     0.0684816  
C        C      0.422600000000     0.835600000000     0.252920000000     0.0684816  
C        C      0.449300000000     0.798700000000     0.199090000000     0.0684816  
C        C      0.460500000000     0.840700000000     0.151940000000     0.0684816  
C        C      0.448100000000     0.720700000000     0.196100000000     0.0684816  
C        C      0.450400000000     0.685500000000     0.145700000000     0.0684816  
C        C      0.460600000000     0.805000000000     0.101200000000     0.0684816  
C        C      0.450600000000     0.727000000000     0.098400000000     0.0684816  
C        C      0.431800000000     0.689500000000     0.043600000000     0.0684816  
C        C      0.822500000000     0.844300000000     0.985580000000     0.0684816  
C        C      0.798400000000     0.811800000000     0.041470000000     0.0684816  
C        C      0.789300000000     0.734200000000     0.046700000000     0.0684816  
C        C      0.797600000000     0.856900000000     0.087900000000     0.0684816  
C        C      0.794800000000     0.823200000000     0.138900000000     0.0684816  
C        C      0.786600000000     0.701400000000     0.098100000000     0.0684816  
C        C      0.793900000000     0.746000000000     0.144900000000     0.0684816  
C        C      0.810700000000     0.708800000000     0.200300000000     0.0684816  
C        C      0.899100000000     0.419600000000     0.877400000000     0.0684816  
C        C      0.888000000000     0.336000000000     0.875960000000     0.0684816  
C        C      0.873100000000     0.298100000000     0.826200000000     0.0684816  
C        C      0.892400000000     0.294400000000     0.924100000000     0.0684816  
C        C      0.867400000000     0.220700000000     0.824700000000     0.0684816  
C        C      0.871600000000     0.179500000000     0.872900000000     0.0684816  
C        C      0.884400000000     0.216900000000     0.922500000000     0.0684816  
C        C      0.864000000000     0.094900000000     0.869800000000     0.0684816  
C        C      0.645500000000     0.922200000000     0.396300000000     0.0684816  
C        C      0.639000000000     0.811000000000     0.426200000000     0.0684816  
C        C      0.621200000000     0.676700000000     0.324000000000     0.0684816  
C        C      0.618500000000     0.562000000000     0.346700000000     0.0684816  
C        C      0.118400000000     0.818800000000     0.415950000000     0.0684816  
C        C      0.123600000000     0.931400000000     0.390100000000     0.0684816  
C        C      0.099000000000     0.681600000000     0.316560000000     0.0684816  
C        C      0.098100000000     0.567300000000     0.337300000000     0.0684816  
C        C      0.922600000000     0.664400000000     0.752920000000     0.0684816  
C        C      0.949300000000     0.701300000000     0.699090000000     0.0684816  
C        C      0.960500000000     0.659300000000     0.651940000000     0.0684816  
C        C      0.948100000000     0.779300000000     0.696100000000     0.0684816  
C        C      0.950400000000     0.814500000000     0.645700000000     0.0684816  
C        C      0.960600000000     0.695000000000     0.601200000000     0.0684816  
C        C      0.950600000000     0.773000000000     0.598400000000     0.0684816  
C        C      0.931800000000     0.810500000000     0.543600000000     0.0684816  
C        C      0.322500000000     0.655700000000     0.485580000000     0.0684816  
C        C      0.298400000000     0.688200000000     0.541470000000     0.0684816  
C        C      0.289300000000     0.765800000000     0.546700000000     0.0684816  
C        C      0.297600000000     0.643100000000     0.587900000000     0.0684816  
C        C      0.294800000000     0.676800000000     0.638900000000     0.0684816  
C        C      0.286600000000     0.798600000000     0.598100000000     0.0684816  
C        C      0.293900000000     0.754000000000     0.644900000000     0.0684816  
C        C      0.310700000000     0.791200000000     0.700300000000     0.0684816  
C        C      0.399100000000     0.080400000000     0.377400000000     0.0684816  
C        C      0.388000000000     0.164000000000     0.375960000000     0.0684816  
C        C      0.373100000000     0.201900000000     0.326200000000     0.0684816  
C        C      0.392400000000     0.205600000000     0.424100000000     0.0684816  
C        C      0.367400000000     0.279300000000     0.324700000000     0.0684816  
C        C      0.371600000000     0.320500000000     0.372900000000     0.0684816  
C        C      0.384400000000     0.283100000000     0.422500000000     0.0684816  
C        C      0.364000000000     0.405100000000     0.369800000000     0.0684816  
C        C      0.354500000000     0.077800000000     0.603700000000     0.0684816  
C        C      0.361000000000     0.189000000000     0.573800000000     0.0684816  
C        C      0.378800000000     0.323300000000     0.676000000000     0.0684816  
C        C      0.381500000000     0.438000000000     0.653300000000     0.0684816  
C        C      0.881600000000     0.181200000000     0.584050000000     0.0684816  
C        C      0.876400000000     0.068600000000     0.609900000000     0.0684816  
C        C      0.901000000000     0.318400000000     0.683440000000     0.0684816  
C        C      0.901900000000     0.432700000000     0.662700000000     0.0684816  
C        C      0.077400000000     0.335600000000     0.247080000000     0.0684816  
C        C      0.050700000000     0.298700000000     0.300910000000     0.0684816  
C        C      0.039500000000     0.340700000000     0.348060000000     0.0684816  
C        C      0.051900000000     0.220700000000     0.303900000000     0.0684816  
C        C      0.049600000000     0.185500000000     0.354300000000     0.0684816  
C        C      0.039400000000     0.305000000000     0.398800000000     0.0684816  
C        C      0.049400000000     0.227000000000     0.401600000000     0.0684816  
C        C      0.068200000000     0.189500000000     0.456400000000     0.0684816  
C        C      0.677500000000     0.344300000000     0.514420000000     0.0684816  
C        C      0.701600000000     0.311800000000     0.458530000000     0.0684816  
C        C      0.710700000000     0.234200000000     0.453300000000     0.0684816  
C        C      0.702400000000     0.356900000000     0.412100000000     0.0684816  
C        C      0.705200000000     0.323200000000     0.361100000000     0.0684816  
C        C      0.713400000000     0.201400000000     0.401900000000     0.0684816  
C        C      0.706100000000     0.246000000000     0.355100000000     0.0684816  
C        C      0.689300000000     0.208800000000     0.299700000000     0.0684816  
C        C      0.600900000000     0.919600000000     0.622600000000     0.0684816  
C        C      0.612000000000     0.836000000000     0.624040000000     0.0684816  
C        C      0.626900000000     0.798100000000     0.673800000000     0.0684816  
C        C      0.607600000000     0.794400000000     0.575900000000     0.0684816  
C        C      0.632600000000     0.720700000000     0.675300000000     0.0684816  
C        C      0.628400000000     0.679500000000     0.627100000000     0.0684816  
C        C      0.615600000000     0.716900000000     0.577500000000     0.0684816  
C        C      0.636000000000     0.594900000000     0.630200000000     0.0684816  
C        C      0.854500000000     0.422200000000     0.103700000000     0.0684816  
C        C      0.861000000000     0.311000000000     0.073800000000     0.0684816  
C        C      0.878800000000     0.176700000000     0.176000000000     0.0684816  
C        C      0.881500000000     0.062000000000     0.153300000000     0.0684816  
C        C      0.381600000000     0.318800000000     0.084050000000     0.0684816  
C        C      0.376400000000     0.431400000000     0.109900000000     0.0684816  
C        C      0.401000000000     0.181600000000     0.183440000000     0.0684816  
C        C      0.401900000000     0.067300000000     0.162700000000     0.0684816  
C        C      0.577400000000     0.164400000000     0.747080000000     0.0684816  
C        C      0.550700000000     0.201300000000     0.800910000000     0.0684816  
C        C      0.539500000000     0.159300000000     0.848060000000     0.0684816  
C        C      0.551900000000     0.279300000000     0.803900000000     0.0684816  
C        C      0.549600000000     0.314500000000     0.854300000000     0.0684816  
C        C      0.539400000000     0.195000000000     0.898800000000     0.0684816  
C        C      0.549400000000     0.273000000000     0.901600000000     0.0684816  
C        C      0.568200000000     0.310500000000     0.956400000000     0.0684816  
C        C      0.177500000000     0.155700000000     0.014420000000     0.0684816  
C        C      0.201600000000     0.188200000000     0.958530000000     0.0684816  
C        C      0.210700000000     0.265800000000     0.953300000000     0.0684816  
C        C      0.202400000000     0.143100000000     0.912100000000     0.0684816  
C        C      0.205200000000     0.176800000000     0.861100000000     0.0684816  
C        C      0.213400000000     0.298600000000     0.901900000000     0.0684816  
C        C      0.206100000000     0.254000000000     0.855100000000     0.0684816  
C        C      0.189300000000     0.291200000000     0.799700000000     0.0684816  
C        C      0.100900000000     0.580400000000     0.122600000000     0.0684816  
C        C      0.112000000000     0.664000000000     0.124040000000     0.0684816  
C        C      0.126900000000     0.701900000000     0.173800000000     0.0684816  
C        C      0.107600000000     0.705600000000     0.075900000000     0.0684816  
C        C      0.132600000000     0.779300000000     0.175300000000     0.0684816  
C        C      0.128400000000     0.820500000000     0.127100000000     0.0684816  
C        C      0.115600000000     0.783100000000     0.077500000000     0.0684816  
C        C      0.136000000000     0.905100000000     0.130200000000     0.0684816  
N        N      0.035300000000     0.607000000000     0.877750000000    -0.140061   
N        N      0.030300000000     0.679500000000     0.896920000000    -0.140061   
N        N      0.215100000000     0.626800000000     0.927220000000    -0.140061   
N        N      0.013100000000     0.833800000000     0.851990000000    -0.140061   
N        N      0.012200000000     0.908500000000     0.867180000000    -0.140061   
N        N      0.190400000000     0.887100000000     0.819120000000    -0.140061   
N        N      0.728400000000     0.601000000000     0.870400000000    -0.140061   
N        N      0.725000000000     0.674500000000     0.887360000000    -0.140061   
N        N      0.550800000000     0.616700000000     0.919390000000    -0.140061   
N        N      0.709100000000     0.830000000000     0.843990000000    -0.140061   
N        N      0.708100000000     0.904500000000     0.858060000000    -0.140061   
N        N      0.526200000000     0.881000000000     0.810390000000    -0.140061   
N        N      0.535300000000     0.893000000000     0.377750000000    -0.140061   
N        N      0.530300000000     0.820500000000     0.396920000000    -0.140061   
N        N      0.715100000000     0.873200000000     0.427220000000    -0.140061   
N        N      0.513100000000     0.666200000000     0.351990000000    -0.140061   
N        N      0.512200000000     0.591500000000     0.367180000000    -0.140061   
N        N      0.690400000000     0.612900000000     0.319120000000    -0.140061   
N        N      0.228400000000     0.899000000000     0.370400000000    -0.140061   
N        N      0.225000000000     0.825500000000     0.387360000000    -0.140061   
N        N      0.050800000000     0.883300000000     0.419390000000    -0.140061   
N        N      0.209100000000     0.670000000000     0.343990000000    -0.140061   
N        N      0.208100000000     0.595500000000     0.358060000000    -0.140061   
N        N      0.026200000000     0.619000000000     0.310390000000    -0.140061   
N        N      0.464700000000     0.107000000000     0.622250000000    -0.140061   
N        N      0.469700000000     0.179500000000     0.603080000000    -0.140061   
N        N      0.284900000000     0.126800000000     0.572780000000    -0.140061   
N        N      0.486900000000     0.333800000000     0.648010000000    -0.140061   
N        N      0.487800000000     0.408500000000     0.632820000000    -0.140061   
N        N      0.309600000000     0.387100000000     0.680880000000    -0.140061   
N        N      0.771600000000     0.101000000000     0.629600000000    -0.140061   
N        N      0.775000000000     0.174500000000     0.612640000000    -0.140061   
N        N      0.949200000000     0.116700000000     0.580610000000    -0.140061   
N        N      0.790900000000     0.330000000000     0.656010000000    -0.140061   
N        N      0.791900000000     0.404500000000     0.641940000000    -0.140061   
N        N      0.973800000000     0.381000000000     0.689610000000    -0.140061   
N        N      0.964700000000     0.393000000000     0.122250000000    -0.140061   
N        N      0.969700000000     0.320500000000     0.103080000000    -0.140061   
N        N      0.784900000000     0.373200000000     0.072780000000    -0.140061   
N        N      0.986900000000     0.166200000000     0.148010000000    -0.140061   
N        N      0.987800000000     0.091500000000     0.132820000000    -0.140061   
N        N      0.809600000000     0.112900000000     0.180880000000    -0.140061   
N        N      0.271600000000     0.399000000000     0.129600000000    -0.140061   
N        N      0.275000000000     0.325500000000     0.112640000000    -0.140061   
N        N      0.449200000000     0.383300000000     0.080610000000    -0.140061   
N        N      0.290900000000     0.170000000000     0.156010000000    -0.140061   
N        N      0.291900000000     0.095500000000     0.141940000000    -0.140061   
N        N      0.473800000000     0.119000000000     0.189610000000    -0.140061   
O        O      0.431200000000     0.907210000000     0.257010000000    -0.276011   
O        O      0.386800000000     0.795960000000     0.291570000000    -0.276011   
O        O      0.411300000000     0.727200000000     0.001740000000    -0.276011   
O        O      0.431300000000     0.616500000000     0.041970000000    -0.276011   
O        O      0.851000000000     0.800200000000     0.948970000000    -0.276011   
O        O      0.817400000000     0.915100000000     0.979500000000    -0.276011   
O        O      0.811400000000     0.636900000000     0.200330000000    -0.276011   
O        O      0.828100000000     0.746800000000     0.242100000000    -0.276011   
O        O      0.875600000000     0.453500000000     0.831440000000    -0.276011   
O        O      0.929000000000     0.452260000000     0.920380000000    -0.276011   
O        O      0.853500000000     0.059620000000     0.914570000000    -0.276011   
O        O      0.872200000000     0.063200000000     0.825500000000    -0.276011   
O        O      0.931200000000     0.592790000000     0.757010000000    -0.276011   
O        O      0.886800000000     0.704040000000     0.791570000000    -0.276011   
O        O      0.911300000000     0.772800000000     0.501740000000    -0.276011   
O        O      0.931300000000     0.883500000000     0.541970000000    -0.276011   
O        O      0.351000000000     0.699800000000     0.448970000000    -0.276011   
O        O      0.317400000000     0.584900000000     0.479500000000    -0.276011   
O        O      0.311400000000     0.863100000000     0.700330000000    -0.276011   
O        O      0.328100000000     0.753200000000     0.742100000000    -0.276011   
O        O      0.375600000000     0.046500000000     0.331440000000    -0.276011   
O        O      0.429000000000     0.047740000000     0.420380000000    -0.276011   
O        O      0.353500000000     0.440380000000     0.414570000000    -0.276011   
O        O      0.372200000000     0.436800000000     0.325500000000    -0.276011   
O        O      0.068800000000     0.407210000000     0.242990000000    -0.276011   
O        O      0.113200000000     0.295960000000     0.208430000000    -0.276011   
O        O      0.088700000000     0.227200000000     0.498260000000    -0.276011   
O        O      0.068700000000     0.116500000000     0.458030000000    -0.276011   
O        O      0.649000000000     0.300200000000     0.551030000000    -0.276011   
O        O      0.682600000000     0.415100000000     0.520500000000    -0.276011   
O        O      0.688600000000     0.136900000000     0.299670000000    -0.276011   
O        O      0.671900000000     0.246800000000     0.257900000000    -0.276011   
O        O      0.624400000000     0.953500000000     0.668560000000    -0.276011   
O        O      0.571000000000     0.952260000000     0.579620000000    -0.276011   
O        O      0.646500000000     0.559620000000     0.585430000000    -0.276011   
O        O      0.627800000000     0.563200000000     0.674500000000    -0.276011   
O        O      0.568800000000     0.092790000000     0.742990000000    -0.276011   
O        O      0.613200000000     0.204040000000     0.708430000000    -0.276011   
O        O      0.588700000000     0.272800000000     0.998260000000    -0.276011   
O        O      0.568700000000     0.383500000000     0.958030000000    -0.276011   
O        O      0.149000000000     0.199800000000     0.051030000000    -0.276011   
O        O      0.182600000000     0.084900000000     0.020500000000    -0.276011   
O        O      0.188600000000     0.363100000000     0.799670000000    -0.276011   
O        O      0.171900000000     0.253200000000     0.757900000000    -0.276011   
O        O      0.124400000000     0.546500000000     0.168560000000    -0.276011   
O        O      0.071000000000     0.547740000000     0.079620000000    -0.276011   
O        O      0.146500000000     0.940380000000     0.085430000000    -0.276011   
O        O      0.127800000000     0.936800000000     0.174500000000    -0.276011   


