data_LETROT_original

_audit_creation_method RASPA-1.0
_audit_creation_date 2022-1-29
_audit_author_name 'Felipe Lopes de Oliveira <felipe.lopes.oliveira@ibm.com>'

_cell_length_a    10.3933
_cell_length_b    10.8688
_cell_length_c    11.0647
_cell_angle_alpha 90.3671
_cell_angle_beta  90
_cell_angle_gamma 118.563
_cell_volume      1097.75

_symmetry_cell_setting          triclinic
_symmetry_space_group_name_Hall 'P 1'
_symmetry_space_group_name_H-M  'P 1'
_symmetry_Int_Tables_number     1

_symmetry_equiv_pos_as_xyz 'x,y,z'

loop_
_atom_site_label
_atom_site_type_symbol
_atom_site_fract_x
_atom_site_fract_y
_atom_site_fract_z
_atom_site_charge
Zn       Zn     0.482330000000     0.845680000000     0.003820000000     0.399038   
Zn       Zn     0.636650000000     0.154320000000     0.496180000000     0.399038   
Zn       Zn     0.517670000000     0.154320000000     0.996180000000     0.399038   
Zn       Zn     0.363350000000     0.845680000000     0.503820000000     0.399038   
Zn       Zn     0.622200000000     0.000000000000     0.750000000000     0.399038   
Zn       Zn     0.377800000000     0.000000000000     0.250000000000     0.399038   
H        H      0.592800000000     0.089200000000     0.949800000000     0.0863009  
H        H      0.578100000000     0.495400000000     0.931900000000     0.0863009  
H        H      0.670500000000     0.686000000000     0.608400000000     0.0863009  
H        H      0.648300000000     0.486800000000     0.511300000000     0.0863009  
H        H      0.503600000000     0.910800000000     0.550200000000     0.0863009  
H        H      0.082700000000     0.504600000000     0.568100000000     0.0863009  
H        H      0.984500000000     0.314000000000     0.891600000000     0.0863009  
H        H      0.161500000000     0.513200000000     0.988700000000     0.0863009  
H        H      0.407200000000     0.910800000000     0.050200000000     0.0863009  
H        H      0.421900000000     0.504600000000     0.068100000000     0.0863009  
H        H      0.329500000000     0.314000000000     0.391600000000     0.0863009  
H        H      0.351700000000     0.513200000000     0.488700000000     0.0863009  
H        H      0.496400000000     0.089200000000     0.449800000000     0.0863009  
H        H      0.917300000000     0.495400000000     0.431900000000     0.0863009  
H        H      0.015500000000     0.686000000000     0.108400000000     0.0863009  
H        H      0.838500000000     0.486800000000     0.011300000000     0.0863009  
C        C      0.599100000000     0.370200000000     0.666300000000     0.0348322  
C        C      0.578400000000     0.371600000000     0.790300000000     0.0348322  
C        C      0.591300000000     0.493200000000     0.849000000000     0.0348322  
C        C      0.623900000000     0.607000000000     0.778400000000     0.0348322  
C        C      0.646600000000     0.605600000000     0.652800000000     0.0348322  
C        C      0.634300000000     0.488200000000     0.594200000000     0.0348322  
C        C      0.632400000000     0.738600000000     0.834000000000     0.0348322  
C        C      0.228900000000     0.629800000000     0.833700000000     0.0348322  
C        C      0.206800000000     0.628400000000     0.709700000000     0.0348322  
C        C      0.098100000000     0.506800000000     0.651000000000     0.0348322  
C        C      0.016900000000     0.393000000000     0.721600000000     0.0348322  
C        C      0.041000000000     0.394400000000     0.847200000000     0.0348322  
C        C      0.146100000000     0.511800000000     0.905800000000     0.0348322  
C        C      0.893800000000     0.261400000000     0.666000000000     0.0348322  
C        C      0.400900000000     0.629800000000     0.333700000000     0.0348322  
C        C      0.421600000000     0.628400000000     0.209700000000     0.0348322  
C        C      0.408700000000     0.506800000000     0.151000000000     0.0348322  
C        C      0.376100000000     0.393000000000     0.221600000000     0.0348322  
C        C      0.353400000000     0.394400000000     0.347200000000     0.0348322  
C        C      0.365700000000     0.511800000000     0.405800000000     0.0348322  
C        C      0.367600000000     0.261400000000     0.166000000000     0.0348322  
C        C      0.771100000000     0.370200000000     0.166300000000     0.0348322  
C        C      0.793200000000     0.371600000000     0.290300000000     0.0348322  
C        C      0.901900000000     0.493200000000     0.349000000000     0.0348322  
C        C      0.983100000000     0.607000000000     0.278400000000     0.0348322  
C        C      0.959000000000     0.605600000000     0.152800000000     0.0348322  
C        C      0.853900000000     0.488200000000     0.094200000000     0.0348322  
C        C      0.106200000000     0.738600000000     0.334000000000     0.0348322  
N        N      0.582700000000     0.241600000000     0.636700000000    -0.103259   
N        N      0.554620000000     0.168840000000     0.738500000000    -0.103259   
N        N      0.551400000000     0.243800000000     0.833000000000    -0.103259   
N        N      0.341100000000     0.758400000000     0.863300000000    -0.103259   
N        N      0.385780000000     0.831160000000     0.761500000000    -0.103259   
N        N      0.307600000000     0.756200000000     0.667000000000    -0.103259   
N        N      0.417300000000     0.758400000000     0.363300000000    -0.103259   
N        N      0.445380000000     0.831160000000     0.261500000000    -0.103259   
N        N      0.448600000000     0.756200000000     0.167000000000    -0.103259   
N        N      0.658900000000     0.241600000000     0.136700000000    -0.103259   
N        N      0.614220000000     0.168840000000     0.238500000000    -0.103259   
N        N      0.692400000000     0.243800000000     0.333000000000    -0.103259   
O        O      0.591100000000     0.733600000000     0.941800000000    -0.292603   
O        O      0.675370000000     0.842140000000     0.764800000000    -0.292603   
O        O      0.621410000000     0.029420000000     0.934400000000    -0.292603   
O        O      0.857500000000     0.266400000000     0.558200000000    -0.292603   
O        O      0.833230000000     0.157860000000     0.735200000000    -0.292603   
O        O      0.591990000000     0.970580000000     0.565600000000    -0.292603   
O        O      0.408900000000     0.266400000000     0.058200000000    -0.292603   
O        O      0.324630000000     0.157860000000     0.235200000000    -0.292603   
O        O      0.378590000000     0.970580000000     0.065600000000    -0.292603   
O        O      0.142500000000     0.733600000000     0.441800000000    -0.292603   
O        O      0.166770000000     0.842140000000     0.264800000000    -0.292603   
O        O      0.408010000000     0.029420000000     0.434400000000    -0.292603   


