data_LIFWOO_original

_audit_creation_method RASPA-1.0
_audit_creation_date 2022-1-29
_audit_author_name 'Felipe Lopes de Oliveira <felipe.lopes.oliveira@ibm.com>'

_cell_length_a    15.0473
_cell_length_b    17.7892
_cell_length_c    17.7892
_cell_angle_alpha 90
_cell_angle_beta  90
_cell_angle_gamma 90
_cell_volume      4761.8

_symmetry_cell_setting          triclinic
_symmetry_space_group_name_Hall 'P 1'
_symmetry_space_group_name_H-M  'P 1'
_symmetry_Int_Tables_number     1

_symmetry_equiv_pos_as_xyz 'x,y,z'

loop_
_atom_site_label
_atom_site_type_symbol
_atom_site_fract_x
_atom_site_fract_y
_atom_site_fract_z
_atom_site_charge
Zn       Zn     0.871560000000     0.750000000000     0.750000000000     0.615511   
Zn       Zn     0.371560000000     0.750000000000     0.750000000000     0.615511   
Zn       Zn     0.628440000000     0.250000000000     0.250000000000     0.615511   
Zn       Zn     0.128440000000     0.250000000000     0.250000000000     0.615511   
Si       Si     0.621470000000     0.750000000000     0.750000000000     3.33484    
Si       Si     0.121470000000     0.750000000000     0.750000000000     3.33484    
Si       Si     0.878530000000     0.250000000000     0.250000000000     3.33484    
Si       Si     0.378530000000     0.250000000000     0.250000000000     3.33484    
H        H      0.771100000000     0.826800000000     0.878100000000     0.0664554  
H        H      0.772600000000     0.840400000000     0.007500000000     0.0664554  
H        H      0.976700000000     0.692300000000     0.015400000000     0.0664554  
H        H      0.973000000000     0.686300000000     0.885200000000     0.0664554  
H        H      0.880100000000     0.661600000000     0.130600000000     0.0664554  
H        H      0.875200000000     0.899300000000     0.243700000000     0.0664554  
H        H      0.870700000000     0.888900000000     0.114600000000     0.0664554  
H        H      0.771100000000     0.673200000000     0.621900000000     0.0664554  
H        H      0.772600000000     0.659600000000     0.492500000000     0.0664554  
H        H      0.976700000000     0.807700000000     0.484600000000     0.0664554  
H        H      0.973000000000     0.813700000000     0.614800000000     0.0664554  
H        H      0.880100000000     0.838400000000     0.369400000000     0.0664554  
H        H      0.875200000000     0.600700000000     0.256300000000     0.0664554  
H        H      0.870700000000     0.611100000000     0.385400000000     0.0664554  
H        H      0.771100000000     0.621900000000     0.826800000000     0.0664554  
H        H      0.772600000000     0.492500000000     0.840400000000     0.0664554  
H        H      0.976700000000     0.484600000000     0.692300000000     0.0664554  
H        H      0.973000000000     0.614800000000     0.686300000000     0.0664554  
H        H      0.880100000000     0.369400000000     0.661600000000     0.0664554  
H        H      0.875200000000     0.256300000000     0.899300000000     0.0664554  
H        H      0.870700000000     0.385400000000     0.888900000000     0.0664554  
H        H      0.771100000000     0.878100000000     0.673200000000     0.0664554  
H        H      0.772600000000     0.007500000000     0.659600000000     0.0664554  
H        H      0.976700000000     0.015400000000     0.807700000000     0.0664554  
H        H      0.973000000000     0.885200000000     0.813700000000     0.0664554  
H        H      0.880100000000     0.130600000000     0.838400000000     0.0664554  
H        H      0.875200000000     0.243700000000     0.600700000000     0.0664554  
H        H      0.870700000000     0.114600000000     0.611100000000     0.0664554  
H        H      0.271100000000     0.826800000000     0.621900000000     0.0664554  
H        H      0.272600000000     0.840400000000     0.492500000000     0.0664554  
H        H      0.476700000000     0.692300000000     0.484600000000     0.0664554  
H        H      0.473000000000     0.686300000000     0.614800000000     0.0664554  
H        H      0.380100000000     0.661600000000     0.369400000000     0.0664554  
H        H      0.375200000000     0.899300000000     0.256300000000     0.0664554  
H        H      0.370700000000     0.888900000000     0.385400000000     0.0664554  
H        H      0.271100000000     0.673200000000     0.878100000000     0.0664554  
H        H      0.272600000000     0.659600000000     0.007500000000     0.0664554  
H        H      0.476700000000     0.807700000000     0.015400000000     0.0664554  
H        H      0.473000000000     0.813700000000     0.885200000000     0.0664554  
H        H      0.380100000000     0.838400000000     0.130600000000     0.0664554  
H        H      0.375200000000     0.600700000000     0.243700000000     0.0664554  
H        H      0.370700000000     0.611100000000     0.114600000000     0.0664554  
H        H      0.271100000000     0.621900000000     0.673200000000     0.0664554  
H        H      0.272600000000     0.492500000000     0.659600000000     0.0664554  
H        H      0.476700000000     0.484600000000     0.807700000000     0.0664554  
H        H      0.473000000000     0.614800000000     0.813700000000     0.0664554  
H        H      0.380100000000     0.369400000000     0.838400000000     0.0664554  
H        H      0.375200000000     0.256300000000     0.600700000000     0.0664554  
H        H      0.370700000000     0.385400000000     0.611100000000     0.0664554  
H        H      0.271100000000     0.878100000000     0.826800000000     0.0664554  
H        H      0.272600000000     0.007500000000     0.840400000000     0.0664554  
H        H      0.476700000000     0.015400000000     0.692300000000     0.0664554  
H        H      0.473000000000     0.885200000000     0.686300000000     0.0664554  
H        H      0.380100000000     0.130600000000     0.661600000000     0.0664554  
H        H      0.375200000000     0.243700000000     0.899300000000     0.0664554  
H        H      0.370700000000     0.114600000000     0.888900000000     0.0664554  
H        H      0.728900000000     0.173200000000     0.378100000000     0.0664554  
H        H      0.727400000000     0.159600000000     0.507500000000     0.0664554  
H        H      0.523300000000     0.307700000000     0.515400000000     0.0664554  
H        H      0.527000000000     0.313700000000     0.385200000000     0.0664554  
H        H      0.619900000000     0.338400000000     0.630600000000     0.0664554  
H        H      0.624800000000     0.100700000000     0.743700000000     0.0664554  
H        H      0.629300000000     0.111100000000     0.614600000000     0.0664554  
H        H      0.728900000000     0.326800000000     0.121900000000     0.0664554  
H        H      0.727400000000     0.340400000000     0.992500000000     0.0664554  
H        H      0.523300000000     0.192300000000     0.984600000000     0.0664554  
H        H      0.527000000000     0.186300000000     0.114800000000     0.0664554  
H        H      0.619900000000     0.161600000000     0.869400000000     0.0664554  
H        H      0.624800000000     0.399300000000     0.756300000000     0.0664554  
H        H      0.629300000000     0.388900000000     0.885400000000     0.0664554  
H        H      0.728900000000     0.378100000000     0.326800000000     0.0664554  
H        H      0.727400000000     0.507500000000     0.340400000000     0.0664554  
H        H      0.523300000000     0.515400000000     0.192300000000     0.0664554  
H        H      0.527000000000     0.385200000000     0.186300000000     0.0664554  
H        H      0.619900000000     0.630600000000     0.161600000000     0.0664554  
H        H      0.624800000000     0.743700000000     0.399300000000     0.0664554  
H        H      0.629300000000     0.614600000000     0.388900000000     0.0664554  
H        H      0.728900000000     0.121900000000     0.173200000000     0.0664554  
H        H      0.727400000000     0.992500000000     0.159600000000     0.0664554  
H        H      0.523300000000     0.984600000000     0.307700000000     0.0664554  
H        H      0.527000000000     0.114800000000     0.313700000000     0.0664554  
H        H      0.619900000000     0.869400000000     0.338400000000     0.0664554  
H        H      0.624800000000     0.756300000000     0.100700000000     0.0664554  
H        H      0.629300000000     0.885400000000     0.111100000000     0.0664554  
H        H      0.228900000000     0.173200000000     0.121900000000     0.0664554  
H        H      0.227400000000     0.159600000000     0.992500000000     0.0664554  
H        H      0.023300000000     0.307700000000     0.984600000000     0.0664554  
H        H      0.027000000000     0.313700000000     0.114800000000     0.0664554  
H        H      0.119900000000     0.338400000000     0.869400000000     0.0664554  
H        H      0.124800000000     0.100700000000     0.756300000000     0.0664554  
H        H      0.129300000000     0.111100000000     0.885400000000     0.0664554  
H        H      0.228900000000     0.326800000000     0.378100000000     0.0664554  
H        H      0.227400000000     0.340400000000     0.507500000000     0.0664554  
H        H      0.023300000000     0.192300000000     0.515400000000     0.0664554  
H        H      0.027000000000     0.186300000000     0.385200000000     0.0664554  
H        H      0.119900000000     0.161600000000     0.630600000000     0.0664554  
H        H      0.124800000000     0.399300000000     0.743700000000     0.0664554  
H        H      0.129300000000     0.388900000000     0.614600000000     0.0664554  
H        H      0.228900000000     0.378100000000     0.173200000000     0.0664554  
H        H      0.227400000000     0.507500000000     0.159600000000     0.0664554  
H        H      0.023300000000     0.515400000000     0.307700000000     0.0664554  
H        H      0.027000000000     0.385200000000     0.313700000000     0.0664554  
H        H      0.119900000000     0.630600000000     0.338400000000     0.0664554  
H        H      0.124800000000     0.743700000000     0.100700000000     0.0664554  
H        H      0.129300000000     0.614600000000     0.111100000000     0.0664554  
H        H      0.228900000000     0.121900000000     0.326800000000     0.0664554  
H        H      0.227400000000     0.992500000000     0.340400000000     0.0664554  
H        H      0.023300000000     0.984600000000     0.192300000000     0.0664554  
H        H      0.027000000000     0.114800000000     0.186300000000     0.0664554  
H        H      0.119900000000     0.869400000000     0.161600000000     0.0664554  
H        H      0.124800000000     0.756300000000     0.399300000000     0.0664554  
H        H      0.129300000000     0.885400000000     0.388900000000     0.0664554  
C        C      0.814000000000     0.799830000000     0.906530000000    -0.0118966  
C        C      0.813800000000     0.807620000000     0.983690000000    -0.0118966  
C        C      0.874750000000     0.766800000000     0.026400000000    -0.0118966  
C        C      0.934200000000     0.721100000000     0.988270000000    -0.0118966  
C        C      0.931300000000     0.717390000000     0.910610000000    -0.0118966  
C        C      0.876290000000     0.773000000000     0.109400000000    -0.0118966  
C        C      0.878270000000     0.709700000000     0.153790000000    -0.0118966  
C        C      0.877640000000     0.714500000000     0.232650000000    -0.0118966  
C        C      0.875500000000     0.850900000000     0.221100000000    -0.0118966  
C        C      0.873700000000     0.844800000000     0.144600000000    -0.0118966  
C        C      0.814000000000     0.700170000000     0.593470000000    -0.0118966  
C        C      0.813800000000     0.692380000000     0.516310000000    -0.0118966  
C        C      0.874750000000     0.733200000000     0.473600000000    -0.0118966  
C        C      0.934200000000     0.778900000000     0.511730000000    -0.0118966  
C        C      0.931300000000     0.782610000000     0.589390000000    -0.0118966  
C        C      0.876290000000     0.727000000000     0.390600000000    -0.0118966  
C        C      0.878270000000     0.790300000000     0.346210000000    -0.0118966  
C        C      0.877640000000     0.785500000000     0.267350000000    -0.0118966  
C        C      0.875500000000     0.649100000000     0.278900000000    -0.0118966  
C        C      0.873700000000     0.655200000000     0.355400000000    -0.0118966  
C        C      0.814000000000     0.593470000000     0.799830000000    -0.0118966  
C        C      0.813800000000     0.516310000000     0.807620000000    -0.0118966  
C        C      0.874750000000     0.473600000000     0.766800000000    -0.0118966  
C        C      0.934200000000     0.511730000000     0.721100000000    -0.0118966  
C        C      0.931300000000     0.589390000000     0.717390000000    -0.0118966  
C        C      0.876290000000     0.390600000000     0.773000000000    -0.0118966  
C        C      0.878270000000     0.346210000000     0.709700000000    -0.0118966  
C        C      0.877640000000     0.267350000000     0.714500000000    -0.0118966  
C        C      0.875500000000     0.278900000000     0.850900000000    -0.0118966  
C        C      0.873700000000     0.355400000000     0.844800000000    -0.0118966  
C        C      0.814000000000     0.906530000000     0.700170000000    -0.0118966  
C        C      0.813800000000     0.983690000000     0.692380000000    -0.0118966  
C        C      0.874750000000     0.026400000000     0.733200000000    -0.0118966  
C        C      0.934200000000     0.988270000000     0.778900000000    -0.0118966  
C        C      0.931300000000     0.910610000000     0.782610000000    -0.0118966  
C        C      0.876290000000     0.109400000000     0.727000000000    -0.0118966  
C        C      0.878270000000     0.153790000000     0.790300000000    -0.0118966  
C        C      0.877640000000     0.232650000000     0.785500000000    -0.0118966  
C        C      0.875500000000     0.221100000000     0.649100000000    -0.0118966  
C        C      0.873700000000     0.144600000000     0.655200000000    -0.0118966  
C        C      0.314000000000     0.799830000000     0.593470000000    -0.0118966  
C        C      0.313800000000     0.807620000000     0.516310000000    -0.0118966  
C        C      0.374750000000     0.766800000000     0.473600000000    -0.0118966  
C        C      0.434200000000     0.721100000000     0.511730000000    -0.0118966  
C        C      0.431300000000     0.717390000000     0.589390000000    -0.0118966  
C        C      0.376290000000     0.773000000000     0.390600000000    -0.0118966  
C        C      0.378270000000     0.709700000000     0.346210000000    -0.0118966  
C        C      0.377640000000     0.714500000000     0.267350000000    -0.0118966  
C        C      0.375500000000     0.850900000000     0.278900000000    -0.0118966  
C        C      0.373700000000     0.844800000000     0.355400000000    -0.0118966  
C        C      0.314000000000     0.700170000000     0.906530000000    -0.0118966  
C        C      0.313800000000     0.692380000000     0.983690000000    -0.0118966  
C        C      0.374750000000     0.733200000000     0.026400000000    -0.0118966  
C        C      0.434200000000     0.778900000000     0.988270000000    -0.0118966  
C        C      0.431300000000     0.782610000000     0.910610000000    -0.0118966  
C        C      0.376290000000     0.727000000000     0.109400000000    -0.0118966  
C        C      0.378270000000     0.790300000000     0.153790000000    -0.0118966  
C        C      0.377640000000     0.785500000000     0.232650000000    -0.0118966  
C        C      0.375500000000     0.649100000000     0.221100000000    -0.0118966  
C        C      0.373700000000     0.655200000000     0.144600000000    -0.0118966  
C        C      0.314000000000     0.593470000000     0.700170000000    -0.0118966  
C        C      0.313800000000     0.516310000000     0.692380000000    -0.0118966  
C        C      0.374750000000     0.473600000000     0.733200000000    -0.0118966  
C        C      0.434200000000     0.511730000000     0.778900000000    -0.0118966  
C        C      0.431300000000     0.589390000000     0.782610000000    -0.0118966  
C        C      0.376290000000     0.390600000000     0.727000000000    -0.0118966  
C        C      0.378270000000     0.346210000000     0.790300000000    -0.0118966  
C        C      0.377640000000     0.267350000000     0.785500000000    -0.0118966  
C        C      0.375500000000     0.278900000000     0.649100000000    -0.0118966  
C        C      0.373700000000     0.355400000000     0.655200000000    -0.0118966  
C        C      0.314000000000     0.906530000000     0.799830000000    -0.0118966  
C        C      0.313800000000     0.983690000000     0.807620000000    -0.0118966  
C        C      0.374750000000     0.026400000000     0.766800000000    -0.0118966  
C        C      0.434200000000     0.988270000000     0.721100000000    -0.0118966  
C        C      0.431300000000     0.910610000000     0.717390000000    -0.0118966  
C        C      0.376290000000     0.109400000000     0.773000000000    -0.0118966  
C        C      0.378270000000     0.153790000000     0.709700000000    -0.0118966  
C        C      0.377640000000     0.232650000000     0.714500000000    -0.0118966  
C        C      0.375500000000     0.221100000000     0.850900000000    -0.0118966  
C        C      0.373700000000     0.144600000000     0.844800000000    -0.0118966  
C        C      0.686000000000     0.200170000000     0.406530000000    -0.0118966  
C        C      0.686200000000     0.192380000000     0.483690000000    -0.0118966  
C        C      0.625250000000     0.233200000000     0.526400000000    -0.0118966  
C        C      0.565800000000     0.278900000000     0.488270000000    -0.0118966  
C        C      0.568700000000     0.282610000000     0.410610000000    -0.0118966  
C        C      0.623710000000     0.227000000000     0.609400000000    -0.0118966  
C        C      0.621730000000     0.290300000000     0.653790000000    -0.0118966  
C        C      0.622360000000     0.285500000000     0.732650000000    -0.0118966  
C        C      0.624500000000     0.149100000000     0.721100000000    -0.0118966  
C        C      0.626300000000     0.155200000000     0.644600000000    -0.0118966  
C        C      0.686000000000     0.299830000000     0.093470000000    -0.0118966  
C        C      0.686200000000     0.307620000000     0.016310000000    -0.0118966  
C        C      0.625250000000     0.266800000000     0.973600000000    -0.0118966  
C        C      0.565800000000     0.221100000000     0.011730000000    -0.0118966  
C        C      0.568700000000     0.217390000000     0.089390000000    -0.0118966  
C        C      0.623710000000     0.273000000000     0.890600000000    -0.0118966  
C        C      0.621730000000     0.209700000000     0.846210000000    -0.0118966  
C        C      0.622360000000     0.214500000000     0.767350000000    -0.0118966  
C        C      0.624500000000     0.350900000000     0.778900000000    -0.0118966  
C        C      0.626300000000     0.344800000000     0.855400000000    -0.0118966  
C        C      0.686000000000     0.406530000000     0.299830000000    -0.0118966  
C        C      0.686200000000     0.483690000000     0.307620000000    -0.0118966  
C        C      0.625250000000     0.526400000000     0.266800000000    -0.0118966  
C        C      0.565800000000     0.488270000000     0.221100000000    -0.0118966  
C        C      0.568700000000     0.410610000000     0.217390000000    -0.0118966  
C        C      0.623710000000     0.609400000000     0.273000000000    -0.0118966  
C        C      0.621730000000     0.653790000000     0.209700000000    -0.0118966  
C        C      0.622360000000     0.732650000000     0.214500000000    -0.0118966  
C        C      0.624500000000     0.721100000000     0.350900000000    -0.0118966  
C        C      0.626300000000     0.644600000000     0.344800000000    -0.0118966  
C        C      0.686000000000     0.093470000000     0.200170000000    -0.0118966  
C        C      0.686200000000     0.016310000000     0.192380000000    -0.0118966  
C        C      0.625250000000     0.973600000000     0.233200000000    -0.0118966  
C        C      0.565800000000     0.011730000000     0.278900000000    -0.0118966  
C        C      0.568700000000     0.089390000000     0.282610000000    -0.0118966  
C        C      0.623710000000     0.890600000000     0.227000000000    -0.0118966  
C        C      0.621730000000     0.846210000000     0.290300000000    -0.0118966  
C        C      0.622360000000     0.767350000000     0.285500000000    -0.0118966  
C        C      0.624500000000     0.778900000000     0.149100000000    -0.0118966  
C        C      0.626300000000     0.855400000000     0.155200000000    -0.0118966  
C        C      0.186000000000     0.200170000000     0.093470000000    -0.0118966  
C        C      0.186200000000     0.192380000000     0.016310000000    -0.0118966  
C        C      0.125250000000     0.233200000000     0.973600000000    -0.0118966  
C        C      0.065800000000     0.278900000000     0.011730000000    -0.0118966  
C        C      0.068700000000     0.282610000000     0.089390000000    -0.0118966  
C        C      0.123710000000     0.227000000000     0.890600000000    -0.0118966  
C        C      0.121730000000     0.290300000000     0.846210000000    -0.0118966  
C        C      0.122360000000     0.285500000000     0.767350000000    -0.0118966  
C        C      0.124500000000     0.149100000000     0.778900000000    -0.0118966  
C        C      0.126300000000     0.155200000000     0.855400000000    -0.0118966  
C        C      0.186000000000     0.299830000000     0.406530000000    -0.0118966  
C        C      0.186200000000     0.307620000000     0.483690000000    -0.0118966  
C        C      0.125250000000     0.266800000000     0.526400000000    -0.0118966  
C        C      0.065800000000     0.221100000000     0.488270000000    -0.0118966  
C        C      0.068700000000     0.217390000000     0.410610000000    -0.0118966  
C        C      0.123710000000     0.273000000000     0.609400000000    -0.0118966  
C        C      0.121730000000     0.209700000000     0.653790000000    -0.0118966  
C        C      0.122360000000     0.214500000000     0.732650000000    -0.0118966  
C        C      0.124500000000     0.350900000000     0.721100000000    -0.0118966  
C        C      0.126300000000     0.344800000000     0.644600000000    -0.0118966  
C        C      0.186000000000     0.406530000000     0.200170000000    -0.0118966  
C        C      0.186200000000     0.483690000000     0.192380000000    -0.0118966  
C        C      0.125250000000     0.526400000000     0.233200000000    -0.0118966  
C        C      0.065800000000     0.488270000000     0.278900000000    -0.0118966  
C        C      0.068700000000     0.410610000000     0.282610000000    -0.0118966  
C        C      0.123710000000     0.609400000000     0.227000000000    -0.0118966  
C        C      0.121730000000     0.653790000000     0.290300000000    -0.0118966  
C        C      0.122360000000     0.732650000000     0.285500000000    -0.0118966  
C        C      0.124500000000     0.721100000000     0.149100000000    -0.0118966  
C        C      0.126300000000     0.644600000000     0.155200000000    -0.0118966  
C        C      0.186000000000     0.093470000000     0.299830000000    -0.0118966  
C        C      0.186200000000     0.016310000000     0.307620000000    -0.0118966  
C        C      0.125250000000     0.973600000000     0.266800000000    -0.0118966  
C        C      0.065800000000     0.011730000000     0.221100000000    -0.0118966  
C        C      0.068700000000     0.089390000000     0.217390000000    -0.0118966  
C        C      0.123710000000     0.890600000000     0.273000000000    -0.0118966  
C        C      0.121730000000     0.846210000000     0.209700000000    -0.0118966  
C        C      0.122360000000     0.767350000000     0.214500000000    -0.0118966  
C        C      0.124500000000     0.778900000000     0.350900000000    -0.0118966  
C        C      0.126300000000     0.855400000000     0.344800000000    -0.0118966  
N        N      0.871930000000     0.756020000000     0.869840000000    -0.145093   
N        N      0.871930000000     0.743980000000     0.630160000000    -0.145093   
N        N      0.871930000000     0.630160000000     0.756020000000    -0.145093   
N        N      0.871930000000     0.869840000000     0.743980000000    -0.145093   
N        N      0.371930000000     0.756020000000     0.630160000000    -0.145093   
N        N      0.371930000000     0.743980000000     0.869840000000    -0.145093   
N        N      0.371930000000     0.630160000000     0.743980000000    -0.145093   
N        N      0.371930000000     0.869840000000     0.756020000000    -0.145093   
N        N      0.628070000000     0.243980000000     0.369840000000    -0.145093   
N        N      0.628070000000     0.256020000000     0.130160000000    -0.145093   
N        N      0.628070000000     0.369840000000     0.256020000000    -0.145093   
N        N      0.628070000000     0.130160000000     0.243980000000    -0.145093   
N        N      0.128070000000     0.243980000000     0.130160000000    -0.145093   
N        N      0.128070000000     0.256020000000     0.369840000000    -0.145093   
N        N      0.128070000000     0.369840000000     0.243980000000    -0.145093   
N        N      0.128070000000     0.130160000000     0.256020000000    -0.145093   
F        F      0.621370000000     0.699300000000     0.828960000000    -0.792478   
F        F      0.621370000000     0.800700000000     0.671040000000    -0.792478   
F        F      0.621370000000     0.671040000000     0.699300000000    -0.792478   
F        F      0.621370000000     0.828960000000     0.800700000000    -0.792478   
F        F      0.121370000000     0.699300000000     0.671040000000    -0.792478   
F        F      0.121370000000     0.800700000000     0.828960000000    -0.792478   
F        F      0.121370000000     0.671040000000     0.800700000000    -0.792478   
F        F      0.121370000000     0.828960000000     0.699300000000    -0.792478   
F        F      0.734300000000     0.750000000000     0.750000000000    -0.792478   
F        F      0.508700000000     0.750000000000     0.750000000000    -0.792478   
F        F      0.234300000000     0.750000000000     0.750000000000    -0.792478   
F        F      0.008700000000     0.750000000000     0.750000000000    -0.792478   
F        F      0.878630000000     0.300700000000     0.328960000000    -0.792478   
F        F      0.878630000000     0.199300000000     0.171040000000    -0.792478   
F        F      0.878630000000     0.328960000000     0.199300000000    -0.792478   
F        F      0.878630000000     0.171040000000     0.300700000000    -0.792478   
F        F      0.378630000000     0.300700000000     0.171040000000    -0.792478   
F        F      0.378630000000     0.199300000000     0.328960000000    -0.792478   
F        F      0.378630000000     0.328960000000     0.300700000000    -0.792478   
F        F      0.378630000000     0.171040000000     0.199300000000    -0.792478   
F        F      0.765700000000     0.250000000000     0.250000000000    -0.792478   
F        F      0.991300000000     0.250000000000     0.250000000000    -0.792478   
F        F      0.265700000000     0.250000000000     0.250000000000    -0.792478   
F        F      0.491300000000     0.250000000000     0.250000000000    -0.792478   


