data_LIHRIE_original

_audit_creation_method RASPA-1.0
_audit_creation_date 2022-1-30
_audit_author_name 'Felipe Lopes de Oliveira <felipe.lopes.oliveira@ibm.com>'

_cell_length_a    6.8119
_cell_length_b    7.3183
_cell_length_c    13.7846
_cell_angle_alpha 90
_cell_angle_beta  90
_cell_angle_gamma 90
_cell_volume      687.183

_symmetry_cell_setting          triclinic
_symmetry_space_group_name_Hall 'P 1'
_symmetry_space_group_name_H-M  'P 1'
_symmetry_Int_Tables_number     1

_symmetry_equiv_pos_as_xyz 'x,y,z'

loop_
_atom_site_label
_atom_site_type_symbol
_atom_site_fract_x
_atom_site_fract_y
_atom_site_fract_z
_atom_site_charge
Zn       Zn     0.750000000000     0.182630000000     0.586240000000     0.306862   
Zn       Zn     0.250000000000     0.317370000000     0.086240000000     0.306862   
Zn       Zn     0.250000000000     0.817370000000     0.413760000000     0.306862   
Zn       Zn     0.750000000000     0.682630000000     0.913760000000     0.306862   
Zn       Zn     0.000000000000     0.500000000000     0.500000000000     0.306862   
Zn       Zn     0.000000000000     0.000000000000     0.000000000000     0.306862   
Zn       Zn     0.500000000000     0.500000000000     0.500000000000     0.306862   
Zn       Zn     0.500000000000     0.000000000000     0.000000000000     0.306862   
H        H      0.038600000000     0.137900000000     0.766800000000     0.0957234  
H        H      0.961400000000     0.362100000000     0.266800000000     0.0957234  
H        H      0.538600000000     0.862100000000     0.233200000000     0.0957234  
H        H      0.461400000000     0.637900000000     0.733200000000     0.0957234  
H        H      0.961400000000     0.862100000000     0.233200000000     0.0957234  
H        H      0.038600000000     0.637900000000     0.733200000000     0.0957234  
H        H      0.461400000000     0.137900000000     0.766800000000     0.0957234  
H        H      0.538600000000     0.362100000000     0.266800000000     0.0957234  
H        H      0.750000000000     0.291000000000     0.431000000000     0.0957234  
H        H      0.250000000000     0.209000000000     0.931000000000     0.0957234  
H        H      0.250000000000     0.709000000000     0.569000000000     0.0957234  
H        H      0.750000000000     0.791000000000     0.069000000000     0.0957234  
C        C      0.905800000000     0.127200000000     0.787020000000     0.0906395  
C        C      0.094200000000     0.372800000000     0.287020000000     0.0906395  
C        C      0.405800000000     0.872800000000     0.212980000000     0.0906395  
C        C      0.594200000000     0.627200000000     0.712980000000     0.0906395  
C        C      0.094200000000     0.872800000000     0.212980000000     0.0906395  
C        C      0.905800000000     0.627200000000     0.712980000000     0.0906395  
C        C      0.594200000000     0.127200000000     0.787020000000     0.0906395  
C        C      0.405800000000     0.372800000000     0.287020000000     0.0906395  
N        N      0.851300000000     0.080500000000     0.875400000000    -0.155152   
N        N      0.148700000000     0.419500000000     0.375400000000    -0.155152   
N        N      0.351300000000     0.919500000000     0.124600000000    -0.155152   
N        N      0.648700000000     0.580500000000     0.624600000000    -0.155152   
N        N      0.148700000000     0.919500000000     0.124600000000    -0.155152   
N        N      0.851300000000     0.580500000000     0.624600000000    -0.155152   
N        N      0.648700000000     0.080500000000     0.875400000000    -0.155152   
N        N      0.351300000000     0.419500000000     0.375400000000    -0.155152   
N        N      0.750000000000     0.158000000000     0.728660000000    -0.155152   
N        N      0.250000000000     0.342000000000     0.228660000000    -0.155152   
N        N      0.250000000000     0.842000000000     0.271340000000    -0.155152   
N        N      0.750000000000     0.658000000000     0.771340000000    -0.155152   
O        O      0.750000000000     0.351100000000     0.473540000000    -0.616719   
O        O      0.250000000000     0.148900000000     0.973540000000    -0.616719   
O        O      0.250000000000     0.648900000000     0.526460000000    -0.616719   
O        O      0.750000000000     0.851100000000     0.026460000000    -0.616719   


