data_LIKFOB_original

_audit_creation_method RASPA-1.0
_audit_creation_date 2022-1-28
_audit_author_name 'Felipe Lopes de Oliveira <felipe.lopes.oliveira@ibm.com>'

_cell_length_a    6.9235
_cell_length_b    7.4268
_cell_length_c    8.2517
_cell_angle_alpha 90.118
_cell_angle_beta  109.774
_cell_angle_gamma 93.329
_cell_volume      398.499

_symmetry_cell_setting          triclinic
_symmetry_space_group_name_Hall 'P 1'
_symmetry_space_group_name_H-M  'P 1'
_symmetry_Int_Tables_number     1

_symmetry_equiv_pos_as_xyz 'x,y,z'

loop_
_atom_site_label
_atom_site_type_symbol
_atom_site_fract_x
_atom_site_fract_y
_atom_site_fract_z
_atom_site_charge
Zn       Zn     0.500000000000     0.000000000000     0.500000000000     0.46888    
Zn       Zn     0.000000000000     0.500000000000     0.500000000000     0.46888    
H        H      0.570600000000     0.204500000000     0.963000000000     0.0655243  
H        H      0.429400000000     0.795500000000     0.037000000000     0.0655243  
C        C      0.542100000000     0.323000000000     0.978200000000     0.107025   
C        C      0.581300000000     0.391800000000     0.143800000000     0.107025   
C        C      0.540300000000     0.569900000000     0.167400000000     0.107025   
C        C      0.580900000000     0.662000000000     0.339700000000     0.107025   
C        C      0.647400000000     0.260300000000     0.288100000000     0.107025   
C        C      0.457900000000     0.677000000000     0.021800000000     0.107025   
C        C      0.418700000000     0.608200000000     0.856200000000     0.107025   
C        C      0.459700000000     0.430100000000     0.832600000000     0.107025   
C        C      0.419100000000     0.338000000000     0.660300000000     0.107025   
C        C      0.352600000000     0.739700000000     0.711900000000     0.107025   
O        O      0.510520000000     0.141520000000     0.288910000000    -0.267382   
O        O      0.827630000000     0.270240000000     0.394310000000    -0.267382   
O        O      0.447620000000     0.766010000000     0.350070000000    -0.267382   
O        O      0.745380000000     0.638640000000     0.462170000000    -0.267382   
O        O      0.489480000000     0.858480000000     0.711090000000    -0.267382   
O        O      0.172370000000     0.729760000000     0.605690000000    -0.267382   
O        O      0.552380000000     0.233990000000     0.649930000000    -0.267382   
O        O      0.254620000000     0.361360000000     0.537830000000    -0.267382   


