data_LOFZUB_original

_audit_creation_method RASPA-1.0
_audit_creation_date 2022-1-31
_audit_author_name 'Felipe Lopes de Oliveira <felipe.lopes.oliveira@ibm.com>'

_cell_length_a    9.4537
_cell_length_b    18.7732
_cell_length_c    18.7732
_cell_angle_alpha 90
_cell_angle_beta  90
_cell_angle_gamma 90
_cell_volume      3331.8

_symmetry_cell_setting          triclinic
_symmetry_space_group_name_Hall 'P 1'
_symmetry_space_group_name_H-M  'P 1'
_symmetry_Int_Tables_number     1

_symmetry_equiv_pos_as_xyz 'x,y,z'

loop_
_atom_site_label
_atom_site_type_symbol
_atom_site_fract_x
_atom_site_fract_y
_atom_site_fract_z
_atom_site_charge
Al       Al     0.919100000000     0.935880000000     0.334320000000     5.63682    
Al       Al     0.842200000000     0.835990000000     0.544230000000     5.63682    
Al       Al     0.664200000000     0.050700000000     0.565190000000     5.63682    
Al       Al     0.919100000000     0.564120000000     0.165680000000     5.63682    
Al       Al     0.842200000000     0.664010000000     0.955770000000     5.63682    
Al       Al     0.664200000000     0.449300000000     0.934810000000     5.63682    
Al       Al     0.919100000000     0.165680000000     0.935880000000     5.63682    
Al       Al     0.842200000000     0.955770000000     0.835990000000     5.63682    
Al       Al     0.664200000000     0.934810000000     0.050700000000     5.63682    
Al       Al     0.919100000000     0.334320000000     0.564120000000     5.63682    
Al       Al     0.842200000000     0.544230000000     0.664010000000     5.63682    
Al       Al     0.664200000000     0.565190000000     0.449300000000     5.63682    
Al       Al     0.080900000000     0.064120000000     0.665680000000     5.63682    
Al       Al     0.157800000000     0.164010000000     0.455770000000     5.63682    
Al       Al     0.335800000000     0.949300000000     0.434810000000     5.63682    
Al       Al     0.080900000000     0.435880000000     0.834320000000     5.63682    
Al       Al     0.157800000000     0.335990000000     0.044230000000     5.63682    
Al       Al     0.335800000000     0.550700000000     0.065190000000     5.63682    
Al       Al     0.080900000000     0.834320000000     0.064120000000     5.63682    
Al       Al     0.157800000000     0.044230000000     0.164010000000     5.63682    
Al       Al     0.335800000000     0.065190000000     0.949300000000     5.63682    
Al       Al     0.080900000000     0.665680000000     0.435880000000     5.63682    
Al       Al     0.157800000000     0.455770000000     0.335990000000     5.63682    
Al       Al     0.335800000000     0.434810000000     0.550700000000     5.63682    
P        P      0.663700000000     0.935870000000     0.442320000000     1.62609    
P        P      0.837800000000     0.949790000000     0.666850000000     1.62609    
P        P      0.905800000000     0.165800000000     0.566240000000     1.62609    
P        P      0.663700000000     0.564130000000     0.057680000000     1.62609    
P        P      0.837800000000     0.550210000000     0.833150000000     1.62609    
P        P      0.905800000000     0.334200000000     0.933760000000     1.62609    
P        P      0.663700000000     0.057680000000     0.935870000000     1.62609    
P        P      0.837800000000     0.833150000000     0.949790000000     1.62609    
P        P      0.905800000000     0.933760000000     0.165800000000     1.62609    
P        P      0.663700000000     0.442320000000     0.564130000000     1.62609    
P        P      0.837800000000     0.666850000000     0.550210000000     1.62609    
P        P      0.905800000000     0.566240000000     0.334200000000     1.62609    
P        P      0.336300000000     0.064130000000     0.557680000000     1.62609    
P        P      0.162200000000     0.050210000000     0.333150000000     1.62609    
P        P      0.094200000000     0.834200000000     0.433760000000     1.62609    
P        P      0.336300000000     0.435870000000     0.942320000000     1.62609    
P        P      0.162200000000     0.449790000000     0.166850000000     1.62609    
P        P      0.094200000000     0.665800000000     0.066240000000     1.62609    
P        P      0.336300000000     0.942320000000     0.064130000000     1.62609    
P        P      0.162200000000     0.166850000000     0.050210000000     1.62609    
P        P      0.094200000000     0.066240000000     0.834200000000     1.62609    
P        P      0.336300000000     0.557680000000     0.435870000000     1.62609    
P        P      0.162200000000     0.333150000000     0.449790000000     1.62609    
P        P      0.094200000000     0.433760000000     0.665800000000     1.62609    
O        O      0.753700000000     0.942600000000     0.375700000000    -1.81573    
O        O      0.512200000000     0.924600000000     0.419300000000    -1.81573    
O        O      0.709700000000     0.872700000000     0.487200000000    -1.81573    
O        O      0.676100000000     0.005000000000     0.483800000000    -1.81573    
O        O      0.981100000000     0.984900000000     0.656700000000    -1.81573    
O        O      0.722500000000     0.997400000000     0.635900000000    -1.81573    
O        O      0.840200000000     0.877900000000     0.629200000000    -1.81573    
O        O      0.806800000000     0.937600000000     0.744200000000    -1.81573    
O        O      0.987300000000     0.155100000000     0.497900000000    -1.81573    
O        O      0.985400000000     0.137000000000     0.629700000000    -1.81573    
O        O      0.763700000000     0.129700000000     0.559900000000    -1.81573    
O        O      0.879300000000     0.244400000000     0.579500000000    -1.81573    
O        O      0.753700000000     0.557400000000     0.124300000000    -1.81573    
O        O      0.512200000000     0.575400000000     0.080700000000    -1.81573    
O        O      0.709700000000     0.627300000000     0.012800000000    -1.81573    
O        O      0.676100000000     0.495000000000     0.016200000000    -1.81573    
O        O      0.981100000000     0.515100000000     0.843300000000    -1.81573    
O        O      0.722500000000     0.502600000000     0.864100000000    -1.81573    
O        O      0.840200000000     0.622100000000     0.870800000000    -1.81573    
O        O      0.806800000000     0.562400000000     0.755800000000    -1.81573    
O        O      0.987300000000     0.344900000000     0.002100000000    -1.81573    
O        O      0.985400000000     0.363000000000     0.870300000000    -1.81573    
O        O      0.763700000000     0.370300000000     0.940100000000    -1.81573    
O        O      0.879300000000     0.255600000000     0.920500000000    -1.81573    
O        O      0.753700000000     0.124300000000     0.942600000000    -1.81573    
O        O      0.512200000000     0.080700000000     0.924600000000    -1.81573    
O        O      0.709700000000     0.012800000000     0.872700000000    -1.81573    
O        O      0.676100000000     0.016200000000     0.005000000000    -1.81573    
O        O      0.981100000000     0.843300000000     0.984900000000    -1.81573    
O        O      0.722500000000     0.864100000000     0.997400000000    -1.81573    
O        O      0.840200000000     0.870800000000     0.877900000000    -1.81573    
O        O      0.806800000000     0.755800000000     0.937600000000    -1.81573    
O        O      0.987300000000     0.002100000000     0.155100000000    -1.81573    
O        O      0.985400000000     0.870300000000     0.137000000000    -1.81573    
O        O      0.763700000000     0.940100000000     0.129700000000    -1.81573    
O        O      0.879300000000     0.920500000000     0.244400000000    -1.81573    
O        O      0.753700000000     0.375700000000     0.557400000000    -1.81573    
O        O      0.512200000000     0.419300000000     0.575400000000    -1.81573    
O        O      0.709700000000     0.487200000000     0.627300000000    -1.81573    
O        O      0.676100000000     0.483800000000     0.495000000000    -1.81573    
O        O      0.981100000000     0.656700000000     0.515100000000    -1.81573    
O        O      0.722500000000     0.635900000000     0.502600000000    -1.81573    
O        O      0.840200000000     0.629200000000     0.622100000000    -1.81573    
O        O      0.806800000000     0.744200000000     0.562400000000    -1.81573    
O        O      0.987300000000     0.497900000000     0.344900000000    -1.81573    
O        O      0.985400000000     0.629700000000     0.363000000000    -1.81573    
O        O      0.763700000000     0.559900000000     0.370300000000    -1.81573    
O        O      0.879300000000     0.579500000000     0.255600000000    -1.81573    
O        O      0.246300000000     0.057400000000     0.624300000000    -1.81573    
O        O      0.487800000000     0.075400000000     0.580700000000    -1.81573    
O        O      0.290300000000     0.127300000000     0.512800000000    -1.81573    
O        O      0.323900000000     0.995000000000     0.516200000000    -1.81573    
O        O      0.018900000000     0.015100000000     0.343300000000    -1.81573    
O        O      0.277500000000     0.002600000000     0.364100000000    -1.81573    
O        O      0.159800000000     0.122100000000     0.370800000000    -1.81573    
O        O      0.193200000000     0.062400000000     0.255800000000    -1.81573    
O        O      0.012700000000     0.844900000000     0.502100000000    -1.81573    
O        O      0.014600000000     0.863000000000     0.370300000000    -1.81573    
O        O      0.236300000000     0.870300000000     0.440100000000    -1.81573    
O        O      0.120700000000     0.755600000000     0.420500000000    -1.81573    
O        O      0.246300000000     0.442600000000     0.875700000000    -1.81573    
O        O      0.487800000000     0.424600000000     0.919300000000    -1.81573    
O        O      0.290300000000     0.372700000000     0.987200000000    -1.81573    
O        O      0.323900000000     0.505000000000     0.983800000000    -1.81573    
O        O      0.018900000000     0.484900000000     0.156700000000    -1.81573    
O        O      0.277500000000     0.497400000000     0.135900000000    -1.81573    
O        O      0.159800000000     0.377900000000     0.129200000000    -1.81573    
O        O      0.193200000000     0.437600000000     0.244200000000    -1.81573    
O        O      0.012700000000     0.655100000000     0.997900000000    -1.81573    
O        O      0.014600000000     0.637000000000     0.129700000000    -1.81573    
O        O      0.236300000000     0.629700000000     0.059900000000    -1.81573    
O        O      0.120700000000     0.744400000000     0.079500000000    -1.81573    
O        O      0.246300000000     0.875700000000     0.057400000000    -1.81573    
O        O      0.487800000000     0.919300000000     0.075400000000    -1.81573    
O        O      0.290300000000     0.987200000000     0.127300000000    -1.81573    
O        O      0.323900000000     0.983800000000     0.995000000000    -1.81573    
O        O      0.018900000000     0.156700000000     0.015100000000    -1.81573    
O        O      0.277500000000     0.135900000000     0.002600000000    -1.81573    
O        O      0.159800000000     0.129200000000     0.122100000000    -1.81573    
O        O      0.193200000000     0.244200000000     0.062400000000    -1.81573    
O        O      0.012700000000     0.997900000000     0.844900000000    -1.81573    
O        O      0.014600000000     0.129700000000     0.863000000000    -1.81573    
O        O      0.236300000000     0.059900000000     0.870300000000    -1.81573    
O        O      0.120700000000     0.079500000000     0.755600000000    -1.81573    
O        O      0.246300000000     0.624300000000     0.442600000000    -1.81573    
O        O      0.487800000000     0.580700000000     0.424600000000    -1.81573    
O        O      0.290300000000     0.512800000000     0.372700000000    -1.81573    
O        O      0.323900000000     0.516200000000     0.505000000000    -1.81573    
O        O      0.018900000000     0.343300000000     0.484900000000    -1.81573    
O        O      0.277500000000     0.364100000000     0.497400000000    -1.81573    
O        O      0.159800000000     0.370800000000     0.377900000000    -1.81573    
O        O      0.193200000000     0.255800000000     0.437600000000    -1.81573    
O        O      0.012700000000     0.502100000000     0.655100000000    -1.81573    
O        O      0.014600000000     0.370300000000     0.637000000000    -1.81573    
O        O      0.236300000000     0.440100000000     0.629700000000    -1.81573    
O        O      0.120700000000     0.420500000000     0.744400000000    -1.81573    


