data_LOJFUL_original

_audit_creation_method RASPA-1.0
_audit_creation_date 2022-1-30
_audit_author_name 'Felipe Lopes de Oliveira <felipe.lopes.oliveira@ibm.com>'

_cell_length_a    16.315
_cell_length_b    17.405
_cell_length_c    18.41
_cell_angle_alpha 89.592
_cell_angle_beta  84.33
_cell_angle_gamma 82.521
_cell_volume      5157.83

_symmetry_cell_setting          triclinic
_symmetry_space_group_name_Hall 'P 1'
_symmetry_space_group_name_H-M  'P 1'
_symmetry_Int_Tables_number     1

_symmetry_equiv_pos_as_xyz 'x,y,z'

loop_
_atom_site_label
_atom_site_type_symbol
_atom_site_fract_x
_atom_site_fract_y
_atom_site_fract_z
_atom_site_charge
Na       Na     0.088780000000     0.050660000000     0.000200000000     2.86432    
Na       Na     0.911220000000     0.949340000000     0.999800000000     2.86432    
Zn       Zn     0.525300000000     0.498900000000     0.190100000000     0.363185   
Zn       Zn     0.474700000000     0.501100000000     0.809900000000     0.363185   
H        H      0.605300000000     0.204900000000     0.156700000000     0.044866   
H        H      0.455000000000     0.222200000000     0.160100000000     0.044866   
H        H      0.217800000000     0.465500000000     0.175900000000     0.044866   
H        H      0.218000000000     0.604800000000     0.174500000000     0.044866   
H        H      0.449500000000     0.794000000000     0.178800000000     0.044866   
H        H      0.598500000000     0.777800000000     0.178200000000     0.044866   
H        H      0.836200000000     0.533800000000     0.162500000000     0.044866   
H        H      0.837100000000     0.392500000000     0.157500000000     0.044866   
H        H      0.735300000000     0.252300000000     0.049500000000     0.044866   
H        H      0.837100000000     0.148200000000     0.035800000000     0.044866   
H        H      0.885200000000     0.168900000000     0.242000000000     0.044866   
H        H      0.780700000000     0.274300000000     0.259500000000     0.044866   
H        H      0.304900000000     0.342300000000     0.058900000000     0.044866   
H        H      0.208400000000     0.258000000000     0.045000000000     0.044866   
H        H      0.206100000000     0.203500000000     0.257600000000     0.044866   
H        H      0.302600000000     0.287800000000     0.271500000000     0.044866   
H        H      0.361100000000     0.757600000000     0.069600000000     0.044866   
H        H      0.265500000000     0.866400000000     0.056300000000     0.044866   
H        H      0.141300000000     0.820500000000     0.246200000000     0.044866   
H        H      0.240400000000     0.715600000000     0.263100000000     0.044866   
H        H      0.723400000000     0.714300000000     0.067200000000     0.044866   
H        H      0.823500000000     0.795100000000     0.058200000000     0.044866   
H        H      0.881600000000     0.737400000000     0.258100000000     0.044866   
H        H      0.779700000000     0.654200000000     0.268200000000     0.044866   
H        H      0.394700000000     0.795100000000     0.843300000000     0.044866   
H        H      0.545000000000     0.777800000000     0.839900000000     0.044866   
H        H      0.782200000000     0.534500000000     0.824100000000     0.044866   
H        H      0.782000000000     0.395200000000     0.825500000000     0.044866   
H        H      0.550500000000     0.206000000000     0.821200000000     0.044866   
H        H      0.401500000000     0.222200000000     0.821800000000     0.044866   
H        H      0.163800000000     0.466200000000     0.837500000000     0.044866   
H        H      0.162900000000     0.607500000000     0.842500000000     0.044866   
H        H      0.264700000000     0.747700000000     0.950500000000     0.044866   
H        H      0.162900000000     0.851800000000     0.964200000000     0.044866   
H        H      0.114800000000     0.831100000000     0.758000000000     0.044866   
H        H      0.219300000000     0.725700000000     0.740500000000     0.044866   
H        H      0.695100000000     0.657700000000     0.941100000000     0.044866   
H        H      0.791600000000     0.742000000000     0.955000000000     0.044866   
H        H      0.793900000000     0.796500000000     0.742400000000     0.044866   
H        H      0.697400000000     0.712200000000     0.728500000000     0.044866   
H        H      0.638900000000     0.242400000000     0.930400000000     0.044866   
H        H      0.734500000000     0.133600000000     0.943700000000     0.044866   
H        H      0.858700000000     0.179500000000     0.753800000000     0.044866   
H        H      0.759600000000     0.284400000000     0.736900000000     0.044866   
H        H      0.276600000000     0.285700000000     0.932800000000     0.044866   
H        H      0.176500000000     0.204900000000     0.941800000000     0.044866   
H        H      0.118400000000     0.262600000000     0.741900000000     0.044866   
H        H      0.220300000000     0.345800000000     0.731800000000     0.044866   
C        C      0.704300000000     0.415500000000     0.168800000000     0.015073   
C        C      0.679100000000     0.342100000000     0.165800000000     0.015073   
C        C      0.595800000000     0.326700000000     0.166800000000     0.015073   
C        C      0.570600000000     0.251800000000     0.161100000000     0.015073   
C        C      0.488200000000     0.261400000000     0.163200000000     0.015073   
C        C      0.459600000000     0.342500000000     0.171200000000     0.015073   
C        C      0.377500000000     0.377200000000     0.174300000000     0.015073   
C        C      0.349600000000     0.456400000000     0.177800000000     0.015073   
C        C      0.264100000000     0.491500000000     0.176400000000     0.015073   
C        C      0.264300000000     0.567800000000     0.176000000000     0.015073   
C        C      0.348400000000     0.583400000000     0.178300000000     0.015073   
C        C      0.375400000000     0.656200000000     0.176000000000     0.015073   
C        C      0.458000000000     0.671900000000     0.176000000000     0.015073   
C        C      0.484000000000     0.747000000000     0.177700000000     0.015073   
C        C      0.565300000000     0.738200000000     0.177500000000     0.015073   
C        C      0.594200000000     0.655400000000     0.175700000000     0.015073   
C        C      0.676100000000     0.622000000000     0.173600000000     0.015073   
C        C      0.704000000000     0.541400000000     0.172600000000     0.015073   
C        C      0.790000000000     0.507400000000     0.165100000000     0.015073   
C        C      0.790500000000     0.429700000000     0.162400000000     0.015073   
C        C      0.745300000000     0.273800000000     0.156100000000     0.015073   
C        C      0.764300000000     0.235600000000     0.088900000000     0.015073   
C        C      0.825600000000     0.173400000000     0.080800000000     0.015073   
C        C      0.870300000000     0.147600000000     0.137400000000     0.015073   
C        C      0.854200000000     0.185600000000     0.203800000000     0.015073   
C        C      0.791500000000     0.249000000000     0.214500000000     0.015073   
C        C      0.937000000000     0.079200000000     0.127200000000     0.015073   
C        C      0.313300000000     0.323400000000     0.166600000000     0.015073   
C        C      0.285100000000     0.314500000000     0.098700000000     0.015073   
C        C      0.227300000000     0.264000000000     0.090400000000     0.015073   
C        C      0.197700000000     0.222400000000     0.149900000000     0.015073   
C        C      0.225900000000     0.231300000000     0.217700000000     0.015073   
C        C      0.283700000000     0.281800000000     0.226100000000     0.015073   
C        C      0.133800000000     0.169000000000     0.137800000000     0.015073   
C        C      0.311500000000     0.725200000000     0.167300000000     0.015073   
C        C      0.317800000000     0.770500000000     0.105900000000     0.015073   
C        C      0.259900000000     0.835800000000     0.097600000000     0.015073   
C        C      0.194500000000     0.854900000000     0.150300000000     0.015073   
C        C      0.186400000000     0.808800000000     0.211300000000     0.015073   
C        C      0.245200000000     0.745100000000     0.221000000000     0.015073   
C        C      0.134400000000     0.925800000000     0.140000000000     0.015073   
C        C      0.741400000000     0.675000000000     0.168400000000     0.015073   
C        C      0.755200000000     0.718300000000     0.106000000000     0.015073   
C        C      0.814900000000     0.766800000000     0.100700000000     0.015073   
C        C      0.863300000000     0.774700000000     0.158000000000     0.015073   
C        C      0.849800000000     0.732800000000     0.219400000000     0.015073   
C        C      0.788400000000     0.682400000000     0.225700000000     0.015073   
C        C      0.926300000000     0.829500000000     0.149300000000     0.015073   
C        C      0.453000000000     0.464700000000     0.346700000000     0.015073   
C        C      0.447000000000     0.464800000000     0.422500000000     0.015073   
C        C      0.503400000000     0.499400000000     0.458940000000     0.015073   
C        C      0.565900000000     0.533800000000     0.419500000000     0.015073   
C        C      0.572000000000     0.533700000000     0.343700000000     0.015073   
C        C      0.295700000000     0.584500000000     0.831200000000     0.015073   
C        C      0.320900000000     0.657900000000     0.834200000000     0.015073   
C        C      0.404200000000     0.673300000000     0.833200000000     0.015073   
C        C      0.429400000000     0.748200000000     0.838900000000     0.015073   
C        C      0.511800000000     0.738600000000     0.836800000000     0.015073   
C        C      0.540400000000     0.657500000000     0.828800000000     0.015073   
C        C      0.622500000000     0.622800000000     0.825700000000     0.015073   
C        C      0.650400000000     0.543600000000     0.822200000000     0.015073   
C        C      0.735900000000     0.508500000000     0.823600000000     0.015073   
C        C      0.735700000000     0.432200000000     0.824000000000     0.015073   
C        C      0.651600000000     0.416600000000     0.821700000000     0.015073   
C        C      0.624600000000     0.343800000000     0.824000000000     0.015073   
C        C      0.542000000000     0.328100000000     0.824000000000     0.015073   
C        C      0.516000000000     0.253000000000     0.822300000000     0.015073   
C        C      0.434700000000     0.261800000000     0.822500000000     0.015073   
C        C      0.405800000000     0.344600000000     0.824300000000     0.015073   
C        C      0.323900000000     0.378000000000     0.826400000000     0.015073   
C        C      0.296000000000     0.458600000000     0.827400000000     0.015073   
C        C      0.210000000000     0.492600000000     0.834900000000     0.015073   
C        C      0.209500000000     0.570300000000     0.837600000000     0.015073   
C        C      0.254700000000     0.726200000000     0.843900000000     0.015073   
C        C      0.235700000000     0.764400000000     0.911100000000     0.015073   
C        C      0.174400000000     0.826600000000     0.919200000000     0.015073   
C        C      0.129700000000     0.852400000000     0.862600000000     0.015073   
C        C      0.145800000000     0.814400000000     0.796200000000     0.015073   
C        C      0.208500000000     0.751000000000     0.785500000000     0.015073   
C        C      0.063000000000     0.920800000000     0.872800000000     0.015073   
C        C      0.686700000000     0.676600000000     0.833400000000     0.015073   
C        C      0.714900000000     0.685500000000     0.901300000000     0.015073   
C        C      0.772700000000     0.736000000000     0.909600000000     0.015073   
C        C      0.802300000000     0.777600000000     0.850100000000     0.015073   
C        C      0.774100000000     0.768700000000     0.782300000000     0.015073   
C        C      0.716300000000     0.718200000000     0.773900000000     0.015073   
C        C      0.866200000000     0.831000000000     0.862200000000     0.015073   
C        C      0.688500000000     0.274800000000     0.832700000000     0.015073   
C        C      0.682200000000     0.229500000000     0.894100000000     0.015073   
C        C      0.740100000000     0.164200000000     0.902400000000     0.015073   
C        C      0.805500000000     0.145100000000     0.849700000000     0.015073   
C        C      0.813600000000     0.191200000000     0.788700000000     0.015073   
C        C      0.754800000000     0.254900000000     0.779000000000     0.015073   
C        C      0.865600000000     0.074200000000     0.860000000000     0.015073   
C        C      0.258600000000     0.325000000000     0.831600000000     0.015073   
C        C      0.244800000000     0.281700000000     0.894000000000     0.015073   
C        C      0.185100000000     0.233200000000     0.899300000000     0.015073   
C        C      0.136700000000     0.225300000000     0.842000000000     0.015073   
C        C      0.150200000000     0.267200000000     0.780600000000     0.015073   
C        C      0.211600000000     0.317600000000     0.774300000000     0.015073   
C        C      0.073700000000     0.170500000000     0.850700000000     0.015073   
C        C      0.547000000000     0.535300000000     0.653300000000     0.015073   
C        C      0.553000000000     0.535200000000     0.577500000000     0.015073   
C        C      0.496600000000     0.500600000000     0.541060000000     0.015073   
C        C      0.434100000000     0.466200000000     0.580500000000     0.015073   
C        C      0.428000000000     0.466300000000     0.656300000000     0.015073   
N        N      0.528100000000     0.381300000000     0.173700000000    -0.167351   
N        N      0.399500000000     0.513900000000     0.179900000000    -0.167351   
N        N      0.525700000000     0.616400000000     0.177100000000    -0.167351   
N        N      0.654300000000     0.484400000000     0.174700000000    -0.167351   
N        N      0.515500000000     0.499200000000     0.307250000000    -0.167351   
N        N      0.471900000000     0.618700000000     0.826300000000    -0.167351   
N        N      0.600500000000     0.486100000000     0.820100000000    -0.167351   
N        N      0.474300000000     0.383600000000     0.822900000000    -0.167351   
N        N      0.345700000000     0.515600000000     0.825300000000    -0.167351   
N        N      0.484500000000     0.500800000000     0.692750000000    -0.167351   
O        O      0.954700000000     0.048500000000     0.067100000000    -0.5333     
O        O      0.973400000000     0.058400000000     0.183300000000    -0.5333     
O        O      0.117100000000     0.151900000000     0.077800000000    -0.5333     
O        O      0.088900000000     0.152100000000     0.202200000000    -0.5333     
O        O      0.147400000000     0.970600000000     0.090000000000    -0.5333     
O        O      0.070800000000     0.937100000000     0.188400000000    -0.5333     
O        O      0.940900000000     0.866100000000     0.095700000000    -0.5333     
O        O      0.967200000000     0.832500000000     0.208800000000    -0.5333     
O        O      0.045300000000     0.951500000000     0.932900000000    -0.5333     
O        O      0.026600000000     0.941600000000     0.816700000000    -0.5333     
O        O      0.882900000000     0.848100000000     0.922200000000    -0.5333     
O        O      0.911100000000     0.847900000000     0.797800000000    -0.5333     
O        O      0.852600000000     0.029400000000     0.910000000000    -0.5333     
O        O      0.929200000000     0.062900000000     0.811600000000    -0.5333     
O        O      0.059100000000     0.133900000000     0.904300000000    -0.5333     
O        O      0.032800000000     0.167500000000     0.791200000000    -0.5333     


