data_LOQLIN_original

_audit_creation_method RASPA-1.0
_audit_creation_date 2022-1-29
_audit_author_name 'Felipe Lopes de Oliveira <felipe.lopes.oliveira@ibm.com>'

_cell_length_a    6.7423
_cell_length_b    21.176
_cell_length_c    21.1869
_cell_angle_alpha 119.983
_cell_angle_beta  90
_cell_angle_gamma 90
_cell_volume      2620.14

_symmetry_cell_setting          triclinic
_symmetry_space_group_name_Hall 'P 1'
_symmetry_space_group_name_H-M  'P 1'
_symmetry_Int_Tables_number     1

_symmetry_equiv_pos_as_xyz 'x,y,z'

loop_
_atom_site_label
_atom_site_type_symbol
_atom_site_fract_x
_atom_site_fract_y
_atom_site_fract_z
_atom_site_charge
Ga       Ga     0.500000000000     0.500000000000     0.500000000000     4.10052    
Ga       Ga     0.000000000000     0.500000000000     0.500000000000     4.10052    
Ga       Ga     0.000000000000     0.000000000000     0.500000000000     4.10052    
Ga       Ga     0.500000000000     0.000000000000     0.500000000000     4.10052    
Ga       Ga     0.500000000000     0.000000000000     0.000000000000     4.10052    
Ga       Ga     0.000000000000     0.000000000000     0.000000000000     4.10052    
H        H      0.444300000000     0.678530000000     0.469460000000     0.0226598  
H        H      0.444300000000     0.322480000000     0.293560000000     0.0226598  
H        H      0.444300000000     0.207680000000     0.183880000000     0.0226598  
H        H      0.944300000000     0.321470000000     0.530540000000     0.0226598  
H        H      0.944300000000     0.677520000000     0.706440000000     0.0226598  
H        H      0.944300000000     0.792320000000     0.816120000000     0.0226598  
H        H      0.055700000000     0.790930000000     0.469460000000     0.0226598  
H        H      0.055700000000     0.971080000000     0.293560000000     0.0226598  
H        H      0.055700000000     0.976200000000     0.183880000000     0.0226598  
H        H      0.555700000000     0.209070000000     0.530540000000     0.0226598  
H        H      0.555700000000     0.028920000000     0.706440000000     0.0226598  
H        H      0.555700000000     0.023800000000     0.816120000000     0.0226598  
H        H      0.555700000000     0.321470000000     0.530540000000     0.0226598  
H        H      0.555700000000     0.677520000000     0.706440000000     0.0226598  
H        H      0.555700000000     0.792320000000     0.816120000000     0.0226598  
H        H      0.055700000000     0.678530000000     0.469460000000     0.0226598  
H        H      0.055700000000     0.322480000000     0.293560000000     0.0226598  
H        H      0.055700000000     0.207680000000     0.183880000000     0.0226598  
H        H      0.944300000000     0.209070000000     0.530540000000     0.0226598  
H        H      0.944300000000     0.028920000000     0.706440000000     0.0226598  
H        H      0.944300000000     0.023800000000     0.816120000000     0.0226598  
H        H      0.444300000000     0.790930000000     0.469460000000     0.0226598  
H        H      0.444300000000     0.971080000000     0.293560000000     0.0226598  
H        H      0.444300000000     0.976200000000     0.183880000000     0.0226598  
C        C      0.570180000000     0.701670000000     0.469460000000     0.172724   
C        C      0.570180000000     0.298850000000     0.270980000000     0.172724   
C        C      0.570180000000     0.231320000000     0.206460000000     0.172724   
C        C      0.070180000000     0.298330000000     0.530540000000     0.172724   
C        C      0.070180000000     0.701150000000     0.729020000000     0.172724   
C        C      0.070180000000     0.768680000000     0.793540000000     0.172724   
C        C      0.929820000000     0.767790000000     0.469460000000     0.172724   
C        C      0.929820000000     0.972130000000     0.270980000000     0.172724   
C        C      0.929820000000     0.975140000000     0.206460000000     0.172724   
C        C      0.429820000000     0.232210000000     0.530540000000     0.172724   
C        C      0.429820000000     0.027870000000     0.729020000000     0.172724   
C        C      0.429820000000     0.024860000000     0.793540000000     0.172724   
C        C      0.429820000000     0.298330000000     0.530540000000     0.172724   
C        C      0.429820000000     0.701150000000     0.729020000000     0.172724   
C        C      0.429820000000     0.768680000000     0.793540000000     0.172724   
C        C      0.929820000000     0.701670000000     0.469460000000     0.172724   
C        C      0.929820000000     0.298850000000     0.270980000000     0.172724   
C        C      0.929820000000     0.231320000000     0.206460000000     0.172724   
C        C      0.070180000000     0.232210000000     0.530540000000     0.172724   
C        C      0.070180000000     0.027870000000     0.729020000000     0.172724   
C        C      0.070180000000     0.024860000000     0.793540000000     0.172724   
C        C      0.570180000000     0.767790000000     0.469460000000     0.172724   
C        C      0.570180000000     0.972130000000     0.270980000000     0.172724   
C        C      0.570180000000     0.975140000000     0.206460000000     0.172724   
C        C      0.750000000000     0.597780000000     0.469460000000     0.172724   
C        C      0.750000000000     0.668620000000     0.469460000000     0.172724   
C        C      0.750000000000     0.404980000000     0.372380000000     0.172724   
C        C      0.750000000000     0.332610000000     0.303240000000     0.172724   
C        C      0.750000000000     0.197550000000     0.174200000000     0.172724   
C        C      0.750000000000     0.125190000000     0.105060000000     0.172724   
C        C      0.250000000000     0.402220000000     0.530540000000     0.172724   
C        C      0.250000000000     0.331380000000     0.530540000000     0.172724   
C        C      0.250000000000     0.595020000000     0.627620000000     0.172724   
C        C      0.250000000000     0.667390000000     0.696760000000     0.172724   
C        C      0.250000000000     0.802450000000     0.825800000000     0.172724   
C        C      0.250000000000     0.874810000000     0.894940000000     0.172724   
C        C      0.750000000000     0.871680000000     0.469460000000     0.172724   
C        C      0.750000000000     0.800840000000     0.469460000000     0.172724   
C        C      0.750000000000     0.967400000000     0.372380000000     0.172724   
C        C      0.750000000000     0.970630000000     0.303240000000     0.172724   
C        C      0.750000000000     0.976650000000     0.174200000000     0.172724   
C        C      0.750000000000     0.979870000000     0.105060000000     0.172724   
C        C      0.250000000000     0.128320000000     0.530540000000     0.172724   
C        C      0.250000000000     0.199160000000     0.530540000000     0.172724   
C        C      0.250000000000     0.032600000000     0.627620000000     0.172724   
C        C      0.250000000000     0.029370000000     0.696760000000     0.172724   
C        C      0.250000000000     0.023350000000     0.825800000000     0.172724   
C        C      0.250000000000     0.020130000000     0.894940000000     0.172724   
O        O      0.589440000000     0.568270000000     0.469460000000    -1.11459    
O        O      0.589440000000     0.435120000000     0.401180000000    -1.11459    
O        O      0.589440000000     0.095040000000     0.076260000000    -1.11459    
O        O      0.089440000000     0.431730000000     0.530540000000    -1.11459    
O        O      0.089440000000     0.564880000000     0.598820000000    -1.11459    
O        O      0.089440000000     0.904960000000     0.923740000000    -1.11459    
O        O      0.910560000000     0.901190000000     0.469460000000    -1.11459    
O        O      0.910560000000     0.966060000000     0.401180000000    -1.11459    
O        O      0.910560000000     0.981220000000     0.076260000000    -1.11459    
O        O      0.410560000000     0.098810000000     0.530540000000    -1.11459    
O        O      0.410560000000     0.033940000000     0.598820000000    -1.11459    
O        O      0.410560000000     0.018780000000     0.923740000000    -1.11459    
O        O      0.410560000000     0.431730000000     0.530540000000    -1.11459    
O        O      0.410560000000     0.564880000000     0.598820000000    -1.11459    
O        O      0.410560000000     0.904960000000     0.923740000000    -1.11459    
O        O      0.910560000000     0.568270000000     0.469460000000    -1.11459    
O        O      0.910560000000     0.435120000000     0.401180000000    -1.11459    
O        O      0.910560000000     0.095040000000     0.076260000000    -1.11459    
O        O      0.089440000000     0.098810000000     0.530540000000    -1.11459    
O        O      0.089440000000     0.033940000000     0.598820000000    -1.11459    
O        O      0.089440000000     0.018780000000     0.923740000000    -1.11459    
O        O      0.589440000000     0.901190000000     0.469460000000    -1.11459    
O        O      0.589440000000     0.966060000000     0.401180000000    -1.11459    
O        O      0.589440000000     0.981220000000     0.076260000000    -1.11459    
O        O      0.750000000000     0.500000000000     0.546000000000    -1.11459    
O        O      0.250000000000     0.500000000000     0.454000000000    -1.11459    
O        O      0.750000000000     0.046000000000     0.546000000000    -1.11459    
O        O      0.250000000000     0.954000000000     0.454000000000    -1.11459    
O        O      0.750000000000     0.974370000000     0.948740000000    -1.11459    
O        O      0.250000000000     0.025630000000     0.051260000000    -1.11459    


