data_LURGEL_original

_audit_creation_method RASPA-1.0
_audit_creation_date 2022-1-28
_audit_author_name 'Felipe Lopes de Oliveira <felipe.lopes.oliveira@ibm.com>'

_cell_length_a    11.8137
_cell_length_b    15.5303
_cell_length_c    16.3912
_cell_angle_alpha 90
_cell_angle_beta  90
_cell_angle_gamma 90
_cell_volume      3007.3

_symmetry_cell_setting          triclinic
_symmetry_space_group_name_Hall 'P 1'
_symmetry_space_group_name_H-M  'P 1'
_symmetry_Int_Tables_number     1

_symmetry_equiv_pos_as_xyz 'x,y,z'

loop_
_atom_site_label
_atom_site_type_symbol
_atom_site_fract_x
_atom_site_fract_y
_atom_site_fract_z
_atom_site_charge
Zn       Zn     0.693800000000     0.678000000000     0.823700000000     0.460675   
Zn       Zn     0.692100000000     0.677600000000     0.001800000000     0.460675   
Si       Si     0.934700000000     0.427900000000     0.437200000000     3.14759    
H        H      0.016200000000     0.023700000000     0.030900000000     0.233971   
H        H      0.020600000000     0.340000000000     0.792900000000     0.233971   
H        H      0.967000000000     0.869400000000     0.792400000000     0.233971   
H        H      0.901400000000     0.455600000000     0.790300000000     0.233971   
H        H      0.957100000000     0.480400000000     0.030300000000     0.233971   
H        H      0.901800000000     0.905300000000     0.028800000000     0.233971   
H        H      0.522000000000     0.922200000000     0.022800000000     0.233971   
H        H      0.523800000000     0.436200000000     0.803700000000     0.233971   
H        H      0.405400000000     0.043700000000     0.026200000000     0.233971   
H        H      0.407200000000     0.314700000000     0.797700000000     0.233971   
H        H      0.379200000000     0.846100000000     0.811500000000     0.233971   
H        H      0.376300000000     0.507400000000     0.014500000000     0.233971   
H        H      0.385700000000     0.178400000000     0.913300000000     0.233971   
H        H      0.260400000000     0.386700000000     0.010600000000     0.233971   
H        H      0.263500000000     0.968100000000     0.815900000000     0.233971   
H        H      0.001500000000     0.177400000000     0.897700000000     0.233971   
H        H      0.078900000000     0.988600000000     0.798500000000     0.233971   
H        H      0.075000000000     0.363200000000     0.028300000000     0.233971   
H        H      0.785200000000     0.582700000000     0.686500000000     0.233971   
H        H      0.806100000000     0.791200000000     0.270800000000     0.233971   
H        H      0.797000000000     0.774000000000     0.132400000000     0.233971   
H        H      0.596800000000     0.626000000000     0.431100000000     0.233971   
H        H      0.740200000000     0.757600000000     0.406800000000     0.233971   
H        H      0.572500000000     0.593700000000     0.156000000000     0.233971   
H        H      0.585400000000     0.785600000000     0.548700000000     0.233971   
H        H      0.578100000000     0.608100000000     0.294900000000     0.233971   
H        H      0.588600000000     0.784000000000     0.686200000000     0.233971   
H        H      0.962000000000     0.394600000000     0.298900000000     0.233971   
H        H      0.840100000000     0.432200000000     0.311400000000     0.233971   
H        H      0.944800000000     0.494100000000     0.308700000000     0.233971   
H        H      0.923400000000     0.275400000000     0.440900000000     0.233971   
H        H      0.894900000000     0.312500000000     0.527500000000     0.233971   
H        H      0.803400000000     0.314500000000     0.458300000000     0.233971   
H        H      0.130300000000     0.395500000000     0.435400000000     0.233971   
H        H      0.113800000000     0.494200000000     0.451200000000     0.233971   
H        H      0.096100000000     0.428200000000     0.522500000000     0.233971   
C        C      0.007600000000     0.993800000000     0.982100000000    -0.191712   
C        C      0.008100000000     0.368200000000     0.842100000000    -0.191712   
C        C      0.975600000000     0.899400000000     0.841100000000    -0.191712   
C        C      0.935600000000     0.438300000000     0.838600000000    -0.191712   
C        C      0.969600000000     0.451900000000     0.981300000000    -0.191712   
C        C      0.921700000000     0.873700000000     0.911700000000    -0.191712   
C        C      0.917200000000     0.480900000000     0.911800000000    -0.191712   
C        C      0.938300000000     0.921700000000     0.981000000000    -0.191712   
C        C      0.841500000000     0.557900000000     0.913200000000    -0.191712   
C        C      0.842200000000     0.798500000000     0.912600000000    -0.191712   
C        C      0.538800000000     0.796900000000     0.913600000000    -0.191712   
C        C      0.540800000000     0.559900000000     0.919000000000    -0.191712   
C        C      0.469500000000     0.931500000000     0.981500000000    -0.191712   
C        C      0.471100000000     0.426300000000     0.844700000000    -0.191712   
C        C      0.462000000000     0.484900000000     0.910100000000    -0.191712   
C        C      0.459900000000     0.872500000000     0.917000000000    -0.191712   
C        C      0.399900000000     0.004600000000     0.983400000000    -0.191712   
C        C      0.401500000000     0.353200000000     0.840900000000    -0.191712   
C        C      0.384600000000     0.885000000000     0.854400000000    -0.191712   
C        C      0.382700000000     0.468900000000     0.971300000000    -0.191712   
C        C      0.322600000000     0.339300000000     0.904400000000    -0.191712   
C        C      0.322300000000     0.018200000000     0.920600000000    -0.191712   
C        C      0.307100000000     0.178300000000     0.910100000000    -0.191712   
C        C      0.312800000000     0.396500000000     0.969300000000    -0.191712   
C        C      0.315500000000     0.958800000000     0.857500000000    -0.191712   
C        C      0.256200000000     0.257700000000     0.912700000000    -0.191712   
C        C      0.257700000000     0.099400000000     0.903500000000    -0.191712   
C        C      0.139700000000     0.100300000000     0.898700000000    -0.191712   
C        C      0.138600000000     0.255000000000     0.907800000000    -0.191712   
C        C      0.080100000000     0.177600000000     0.900900000000    -0.191712   
C        C      0.064700000000     0.023500000000     0.913300000000    -0.191712   
C        C      0.064700000000     0.334300000000     0.909200000000    -0.191712   
C        C      0.043200000000     0.972200000000     0.846600000000    -0.191712   
C        C      0.041300000000     0.380600000000     0.979800000000    -0.191712   
C        C      0.742600000000     0.623940000000     0.574990000000    -0.191712   
C        C      0.743800000000     0.624700000000     0.659200000000    -0.191712   
C        C      0.757500000000     0.750200000000     0.248700000000    -0.191712   
C        C      0.751400000000     0.739300000000     0.164900000000    -0.191712   
C        C      0.682900000000     0.683100000000     0.530900000000    -0.191712   
C        C      0.693100000000     0.701300000000     0.298200000000    -0.191712   
C        C      0.650500000000     0.667600000000     0.444100000000    -0.191712   
C        C      0.697000000000     0.711600000000     0.388500000000    -0.191712   
C        C      0.620900000000     0.634500000000     0.178400000000    -0.191712   
C        C      0.626600000000     0.743000000000     0.575500000000    -0.191712   
C        C      0.624000000000     0.642900000000     0.262600000000    -0.191712   
C        C      0.629100000000     0.742100000000     0.658100000000    -0.191712   
C        C      0.855100000000     0.508700000000     0.493980000000    -0.191712   
C        C      0.804100000000     0.560950000000     0.530710000000    -0.191712   
C        C      0.918500000000     0.438500000000     0.325700000000    -0.191712   
C        C      0.882800000000     0.319300000000     0.470000000000    -0.191712   
C        C      0.087200000000     0.437600000000     0.464900000000    -0.191712   
N        N      0.683900000000     0.682100000000     0.127500000000    -0.18647    
N        N      0.688500000000     0.682300000000     0.701900000000    -0.18647    
O        O      0.803800000000     0.580600000000     0.980900000000    -0.292707   
O        O      0.798800000000     0.776300000000     0.979900000000    -0.292707   
O        O      0.799800000000     0.781100000000     0.843600000000    -0.292707   
O        O      0.794000000000     0.576700000000     0.845600000000    -0.292707   
O        O      0.567400000000     0.764400000000     0.846400000000    -0.292707   
O        O      0.561500000000     0.596600000000     0.851200000000    -0.292707   
O        O      0.558100000000     0.599700000000     0.984800000000    -0.292707   
O        O      0.556800000000     0.756300000000     0.978700000000    -0.292707   


