data_LUVTEC_original

_audit_creation_method RASPA-1.0
_audit_creation_date 2022-1-30
_audit_author_name 'Felipe Lopes de Oliveira <felipe.lopes.oliveira@ibm.com>'

_cell_length_a    15.133
_cell_length_b    17.6776
_cell_length_c    17.6776
_cell_angle_alpha 90
_cell_angle_beta  90
_cell_angle_gamma 90
_cell_volume      4729.03

_symmetry_cell_setting          triclinic
_symmetry_space_group_name_Hall 'P 1'
_symmetry_space_group_name_H-M  'P 1'
_symmetry_Int_Tables_number     1

_symmetry_equiv_pos_as_xyz 'x,y,z'

loop_
_atom_site_label
_atom_site_type_symbol
_atom_site_fract_x
_atom_site_fract_y
_atom_site_fract_z
_atom_site_charge
Zn       Zn     0.969080000000     0.854380000000     0.896410000000     0.467236   
Zn       Zn     0.969080000000     0.145620000000     0.103590000000     0.467236   
Zn       Zn     0.030920000000     0.896410000000     0.145620000000     0.467236   
Zn       Zn     0.030920000000     0.103590000000     0.854380000000     0.467236   
Zn       Zn     0.469080000000     0.854380000000     0.103590000000     0.467236   
Zn       Zn     0.469080000000     0.145620000000     0.896410000000     0.467236   
Zn       Zn     0.530920000000     0.896410000000     0.854380000000     0.467236   
Zn       Zn     0.530920000000     0.103590000000     0.145620000000     0.467236   
Zn       Zn     0.750000000000     0.851000000000     0.851000000000     0.467236   
Zn       Zn     0.750000000000     0.149000000000     0.149000000000     0.467236   
Zn       Zn     0.250000000000     0.851000000000     0.149000000000     0.467236   
Zn       Zn     0.250000000000     0.149000000000     0.851000000000     0.467236   
H        H      0.780400000000     0.863500000000     0.613200000000     0.0778944  
H        H      0.815900000000     0.879400000000     0.485100000000     0.0778944  
H        H      0.074600000000     0.894900000000     0.539600000000     0.0778944  
H        H      0.039200000000     0.880100000000     0.667700000000     0.0778944  
H        H      0.090200000000     0.841600000000     0.421900000000     0.0778944  
H        H      0.118200000000     0.846200000000     0.293400000000     0.0778944  
H        H      0.896800000000     0.952600000000     0.257000000000     0.0778944  
H        H      0.860400000000     0.950200000000     0.383800000000     0.0778944  
H        H      0.780100000000     0.899600000000     0.013800000000     0.0778944  
H        H      0.736800000000     0.770100000000     0.993300000000     0.0778944  
H        H      0.833700000000     0.743900000000     0.018200000000     0.0778944  
H        H      0.769900000000     0.784100000000     0.078100000000     0.0778944  
H        H      0.780400000000     0.136500000000     0.386800000000     0.0778944  
H        H      0.815900000000     0.120600000000     0.514900000000     0.0778944  
H        H      0.074600000000     0.105100000000     0.460400000000     0.0778944  
H        H      0.039200000000     0.119900000000     0.332300000000     0.0778944  
H        H      0.090200000000     0.158400000000     0.578100000000     0.0778944  
H        H      0.118200000000     0.153800000000     0.706600000000     0.0778944  
H        H      0.896800000000     0.047400000000     0.743000000000     0.0778944  
H        H      0.860400000000     0.049800000000     0.616200000000     0.0778944  
H        H      0.780100000000     0.100400000000     0.986200000000     0.0778944  
H        H      0.736800000000     0.229900000000     0.006700000000     0.0778944  
H        H      0.833700000000     0.256100000000     0.981800000000     0.0778944  
H        H      0.769900000000     0.215900000000     0.921900000000     0.0778944  
H        H      0.219600000000     0.613200000000     0.136500000000     0.0778944  
H        H      0.184100000000     0.485100000000     0.120600000000     0.0778944  
H        H      0.925400000000     0.539600000000     0.105100000000     0.0778944  
H        H      0.960800000000     0.667700000000     0.119900000000     0.0778944  
H        H      0.909800000000     0.421900000000     0.158400000000     0.0778944  
H        H      0.881800000000     0.293400000000     0.153800000000     0.0778944  
H        H      0.103200000000     0.257000000000     0.047400000000     0.0778944  
H        H      0.139600000000     0.383800000000     0.049800000000     0.0778944  
H        H      0.219900000000     0.013800000000     0.100400000000     0.0778944  
H        H      0.263200000000     0.993300000000     0.229900000000     0.0778944  
H        H      0.166300000000     0.018200000000     0.256100000000     0.0778944  
H        H      0.230100000000     0.078100000000     0.215900000000     0.0778944  
H        H      0.219600000000     0.386800000000     0.863500000000     0.0778944  
H        H      0.184100000000     0.514900000000     0.879400000000     0.0778944  
H        H      0.925400000000     0.460400000000     0.894900000000     0.0778944  
H        H      0.960800000000     0.332300000000     0.880100000000     0.0778944  
H        H      0.909800000000     0.578100000000     0.841600000000     0.0778944  
H        H      0.881800000000     0.706600000000     0.846200000000     0.0778944  
H        H      0.103200000000     0.743000000000     0.952600000000     0.0778944  
H        H      0.139600000000     0.616200000000     0.950200000000     0.0778944  
H        H      0.219900000000     0.986200000000     0.899600000000     0.0778944  
H        H      0.263200000000     0.006700000000     0.770100000000     0.0778944  
H        H      0.166300000000     0.981800000000     0.743900000000     0.0778944  
H        H      0.230100000000     0.921900000000     0.784100000000     0.0778944  
H        H      0.280400000000     0.863500000000     0.386800000000     0.0778944  
H        H      0.315900000000     0.879400000000     0.514900000000     0.0778944  
H        H      0.574600000000     0.894900000000     0.460400000000     0.0778944  
H        H      0.539200000000     0.880100000000     0.332300000000     0.0778944  
H        H      0.590200000000     0.841600000000     0.578100000000     0.0778944  
H        H      0.618200000000     0.846200000000     0.706600000000     0.0778944  
H        H      0.396800000000     0.952600000000     0.743000000000     0.0778944  
H        H      0.360400000000     0.950200000000     0.616200000000     0.0778944  
H        H      0.280100000000     0.899600000000     0.986200000000     0.0778944  
H        H      0.236800000000     0.770100000000     0.006700000000     0.0778944  
H        H      0.333700000000     0.743900000000     0.981800000000     0.0778944  
H        H      0.269900000000     0.784100000000     0.921900000000     0.0778944  
H        H      0.280400000000     0.136500000000     0.613200000000     0.0778944  
H        H      0.315900000000     0.120600000000     0.485100000000     0.0778944  
H        H      0.574600000000     0.105100000000     0.539600000000     0.0778944  
H        H      0.539200000000     0.119900000000     0.667700000000     0.0778944  
H        H      0.590200000000     0.158400000000     0.421900000000     0.0778944  
H        H      0.618200000000     0.153800000000     0.293400000000     0.0778944  
H        H      0.396800000000     0.047400000000     0.257000000000     0.0778944  
H        H      0.360400000000     0.049800000000     0.383800000000     0.0778944  
H        H      0.280100000000     0.100400000000     0.013800000000     0.0778944  
H        H      0.236800000000     0.229900000000     0.993300000000     0.0778944  
H        H      0.333700000000     0.256100000000     0.018200000000     0.0778944  
H        H      0.269900000000     0.215900000000     0.078100000000     0.0778944  
H        H      0.719600000000     0.613200000000     0.863500000000     0.0778944  
H        H      0.684100000000     0.485100000000     0.879400000000     0.0778944  
H        H      0.425400000000     0.539600000000     0.894900000000     0.0778944  
H        H      0.460800000000     0.667700000000     0.880100000000     0.0778944  
H        H      0.409800000000     0.421900000000     0.841600000000     0.0778944  
H        H      0.381800000000     0.293400000000     0.846200000000     0.0778944  
H        H      0.603200000000     0.257000000000     0.952600000000     0.0778944  
H        H      0.639600000000     0.383800000000     0.950200000000     0.0778944  
H        H      0.719900000000     0.013800000000     0.899600000000     0.0778944  
H        H      0.763200000000     0.993300000000     0.770100000000     0.0778944  
H        H      0.666300000000     0.018200000000     0.743900000000     0.0778944  
H        H      0.730100000000     0.078100000000     0.784100000000     0.0778944  
H        H      0.719600000000     0.386800000000     0.136500000000     0.0778944  
H        H      0.684100000000     0.514900000000     0.120600000000     0.0778944  
H        H      0.425400000000     0.460400000000     0.105100000000     0.0778944  
H        H      0.460800000000     0.332300000000     0.119900000000     0.0778944  
H        H      0.409800000000     0.578100000000     0.158400000000     0.0778944  
H        H      0.381800000000     0.706600000000     0.153800000000     0.0778944  
H        H      0.603200000000     0.743000000000     0.047400000000     0.0778944  
H        H      0.639600000000     0.616200000000     0.049800000000     0.0778944  
H        H      0.719900000000     0.986200000000     0.100400000000     0.0778944  
H        H      0.763200000000     0.006700000000     0.229900000000     0.0778944  
H        H      0.666300000000     0.981800000000     0.256100000000     0.0778944  
H        H      0.730100000000     0.921900000000     0.215900000000     0.0778944  
C        C      0.905700000000     0.869600000000     0.652700000000    -0.00273961 
C        C      0.840400000000     0.869700000000     0.598600000000    -0.00273961 
C        C      0.861800000000     0.878800000000     0.521800000000    -0.00273961 
C        C      0.948900000000     0.887100000000     0.498700000000    -0.00273961 
C        C      0.014700000000     0.888200000000     0.554100000000    -0.00273961 
C        C      0.993700000000     0.879400000000     0.630700000000    -0.00273961 
C        C      0.971100000000     0.893400000000     0.418200000000    -0.00273961 
C        C      0.048100000000     0.864200000000     0.389000000000    -0.00273961 
C        C      0.064700000000     0.867400000000     0.311900000000    -0.00273961 
C        C      0.936300000000     0.928700000000     0.291300000000    -0.00273961 
C        C      0.914000000000     0.927800000000     0.366900000000    -0.00273961 
C        C      0.882400000000     0.858600000000     0.733900000000    -0.00273961 
C        C      0.824400000000     0.859300000000     0.001800000000    -0.00273961 
C        C      0.908200000000     0.873100000000     0.046200000000    -0.00273961 
C        C      0.788000000000     0.782500000000     0.024900000000    -0.00273961 
C        C      0.905700000000     0.130400000000     0.347300000000    -0.00273961 
C        C      0.840400000000     0.130300000000     0.401400000000    -0.00273961 
C        C      0.861800000000     0.121200000000     0.478200000000    -0.00273961 
C        C      0.948900000000     0.112900000000     0.501300000000    -0.00273961 
C        C      0.014700000000     0.111800000000     0.445900000000    -0.00273961 
C        C      0.993700000000     0.120600000000     0.369300000000    -0.00273961 
C        C      0.971100000000     0.106600000000     0.581800000000    -0.00273961 
C        C      0.048100000000     0.135800000000     0.611000000000    -0.00273961 
C        C      0.064700000000     0.132600000000     0.688100000000    -0.00273961 
C        C      0.936300000000     0.071300000000     0.708700000000    -0.00273961 
C        C      0.914000000000     0.072200000000     0.633100000000    -0.00273961 
C        C      0.882400000000     0.141400000000     0.266100000000    -0.00273961 
C        C      0.824400000000     0.140700000000     0.998200000000    -0.00273961 
C        C      0.908200000000     0.126900000000     0.953800000000    -0.00273961 
C        C      0.788000000000     0.217500000000     0.975100000000    -0.00273961 
C        C      0.094300000000     0.652700000000     0.130400000000    -0.00273961 
C        C      0.159600000000     0.598600000000     0.130300000000    -0.00273961 
C        C      0.138200000000     0.521800000000     0.121200000000    -0.00273961 
C        C      0.051100000000     0.498700000000     0.112900000000    -0.00273961 
C        C      0.985300000000     0.554100000000     0.111800000000    -0.00273961 
C        C      0.006300000000     0.630700000000     0.120600000000    -0.00273961 
C        C      0.028900000000     0.418200000000     0.106600000000    -0.00273961 
C        C      0.951900000000     0.389000000000     0.135800000000    -0.00273961 
C        C      0.935300000000     0.311900000000     0.132600000000    -0.00273961 
C        C      0.063700000000     0.291300000000     0.071300000000    -0.00273961 
C        C      0.086000000000     0.366900000000     0.072200000000    -0.00273961 
C        C      0.117600000000     0.733900000000     0.141400000000    -0.00273961 
C        C      0.175600000000     0.001800000000     0.140700000000    -0.00273961 
C        C      0.091800000000     0.046200000000     0.126900000000    -0.00273961 
C        C      0.212000000000     0.024900000000     0.217500000000    -0.00273961 
C        C      0.094300000000     0.347300000000     0.869600000000    -0.00273961 
C        C      0.159600000000     0.401400000000     0.869700000000    -0.00273961 
C        C      0.138200000000     0.478200000000     0.878800000000    -0.00273961 
C        C      0.051100000000     0.501300000000     0.887100000000    -0.00273961 
C        C      0.985300000000     0.445900000000     0.888200000000    -0.00273961 
C        C      0.006300000000     0.369300000000     0.879400000000    -0.00273961 
C        C      0.028900000000     0.581800000000     0.893400000000    -0.00273961 
C        C      0.951900000000     0.611000000000     0.864200000000    -0.00273961 
C        C      0.935300000000     0.688100000000     0.867400000000    -0.00273961 
C        C      0.063700000000     0.708700000000     0.928700000000    -0.00273961 
C        C      0.086000000000     0.633100000000     0.927800000000    -0.00273961 
C        C      0.117600000000     0.266100000000     0.858600000000    -0.00273961 
C        C      0.175600000000     0.998200000000     0.859300000000    -0.00273961 
C        C      0.091800000000     0.953800000000     0.873100000000    -0.00273961 
C        C      0.212000000000     0.975100000000     0.782500000000    -0.00273961 
C        C      0.405700000000     0.869600000000     0.347300000000    -0.00273961 
C        C      0.340400000000     0.869700000000     0.401400000000    -0.00273961 
C        C      0.361800000000     0.878800000000     0.478200000000    -0.00273961 
C        C      0.448900000000     0.887100000000     0.501300000000    -0.00273961 
C        C      0.514700000000     0.888200000000     0.445900000000    -0.00273961 
C        C      0.493700000000     0.879400000000     0.369300000000    -0.00273961 
C        C      0.471100000000     0.893400000000     0.581800000000    -0.00273961 
C        C      0.548100000000     0.864200000000     0.611000000000    -0.00273961 
C        C      0.564700000000     0.867400000000     0.688100000000    -0.00273961 
C        C      0.436300000000     0.928700000000     0.708700000000    -0.00273961 
C        C      0.414000000000     0.927800000000     0.633100000000    -0.00273961 
C        C      0.382400000000     0.858600000000     0.266100000000    -0.00273961 
C        C      0.324400000000     0.859300000000     0.998200000000    -0.00273961 
C        C      0.408200000000     0.873100000000     0.953800000000    -0.00273961 
C        C      0.288000000000     0.782500000000     0.975100000000    -0.00273961 
C        C      0.405700000000     0.130400000000     0.652700000000    -0.00273961 
C        C      0.340400000000     0.130300000000     0.598600000000    -0.00273961 
C        C      0.361800000000     0.121200000000     0.521800000000    -0.00273961 
C        C      0.448900000000     0.112900000000     0.498700000000    -0.00273961 
C        C      0.514700000000     0.111800000000     0.554100000000    -0.00273961 
C        C      0.493700000000     0.120600000000     0.630700000000    -0.00273961 
C        C      0.471100000000     0.106600000000     0.418200000000    -0.00273961 
C        C      0.548100000000     0.135800000000     0.389000000000    -0.00273961 
C        C      0.564700000000     0.132600000000     0.311900000000    -0.00273961 
C        C      0.436300000000     0.071300000000     0.291300000000    -0.00273961 
C        C      0.414000000000     0.072200000000     0.366900000000    -0.00273961 
C        C      0.382400000000     0.141400000000     0.733900000000    -0.00273961 
C        C      0.324400000000     0.140700000000     0.001800000000    -0.00273961 
C        C      0.408200000000     0.126900000000     0.046200000000    -0.00273961 
C        C      0.288000000000     0.217500000000     0.024900000000    -0.00273961 
C        C      0.594300000000     0.652700000000     0.869600000000    -0.00273961 
C        C      0.659600000000     0.598600000000     0.869700000000    -0.00273961 
C        C      0.638200000000     0.521800000000     0.878800000000    -0.00273961 
C        C      0.551100000000     0.498700000000     0.887100000000    -0.00273961 
C        C      0.485300000000     0.554100000000     0.888200000000    -0.00273961 
C        C      0.506300000000     0.630700000000     0.879400000000    -0.00273961 
C        C      0.528900000000     0.418200000000     0.893400000000    -0.00273961 
C        C      0.451900000000     0.389000000000     0.864200000000    -0.00273961 
C        C      0.435300000000     0.311900000000     0.867400000000    -0.00273961 
C        C      0.563700000000     0.291300000000     0.928700000000    -0.00273961 
C        C      0.586000000000     0.366900000000     0.927800000000    -0.00273961 
C        C      0.617600000000     0.733900000000     0.858600000000    -0.00273961 
C        C      0.675600000000     0.001800000000     0.859300000000    -0.00273961 
C        C      0.591800000000     0.046200000000     0.873100000000    -0.00273961 
C        C      0.712000000000     0.024900000000     0.782500000000    -0.00273961 
C        C      0.594300000000     0.347300000000     0.130400000000    -0.00273961 
C        C      0.659600000000     0.401400000000     0.130300000000    -0.00273961 
C        C      0.638200000000     0.478200000000     0.121200000000    -0.00273961 
C        C      0.551100000000     0.501300000000     0.112900000000    -0.00273961 
C        C      0.485300000000     0.445900000000     0.111800000000    -0.00273961 
C        C      0.506300000000     0.369300000000     0.120600000000    -0.00273961 
C        C      0.528900000000     0.581800000000     0.106600000000    -0.00273961 
C        C      0.451900000000     0.611000000000     0.135800000000    -0.00273961 
C        C      0.435300000000     0.688100000000     0.132600000000    -0.00273961 
C        C      0.563700000000     0.708700000000     0.071300000000    -0.00273961 
C        C      0.586000000000     0.633100000000     0.072200000000    -0.00273961 
C        C      0.617600000000     0.266100000000     0.141400000000    -0.00273961 
C        C      0.675600000000     0.998200000000     0.140700000000    -0.00273961 
C        C      0.591800000000     0.953800000000     0.126900000000    -0.00273961 
C        C      0.712000000000     0.975100000000     0.217500000000    -0.00273961 
N        N      0.009800000000     0.898400000000     0.263400000000    -0.162013   
N        N      0.009800000000     0.101600000000     0.736600000000    -0.162013   
N        N      0.990200000000     0.263400000000     0.101600000000    -0.162013   
N        N      0.990200000000     0.736600000000     0.898400000000    -0.162013   
N        N      0.509800000000     0.898400000000     0.736600000000    -0.162013   
N        N      0.509800000000     0.101600000000     0.263400000000    -0.162013   
N        N      0.490200000000     0.263400000000     0.898400000000    -0.162013   
N        N      0.490200000000     0.736600000000     0.101600000000    -0.162013   
O        O      0.945900000000     0.856000000000     0.780500000000    -0.286496   
O        O      0.802600000000     0.853500000000     0.749500000000    -0.286496   
O        O      0.842500000000     0.859500000000     0.923900000000    -0.286496   
O        O      0.981000000000     0.873600000000     0.012600000000    -0.286496   
O        O      0.901500000000     0.880700000000     0.117300000000    -0.286496   
O        O      0.945900000000     0.144000000000     0.219500000000    -0.286496   
O        O      0.802600000000     0.146500000000     0.250500000000    -0.286496   
O        O      0.842500000000     0.140500000000     0.076100000000    -0.286496   
O        O      0.981000000000     0.126400000000     0.987400000000    -0.286496   
O        O      0.901500000000     0.119300000000     0.882700000000    -0.286496   
O        O      0.054100000000     0.780500000000     0.144000000000    -0.286496   
O        O      0.197400000000     0.749500000000     0.146500000000    -0.286496   
O        O      0.157500000000     0.923900000000     0.140500000000    -0.286496   
O        O      0.019000000000     0.012600000000     0.126400000000    -0.286496   
O        O      0.098500000000     0.117300000000     0.119300000000    -0.286496   
O        O      0.054100000000     0.219500000000     0.856000000000    -0.286496   
O        O      0.197400000000     0.250500000000     0.853500000000    -0.286496   
O        O      0.157500000000     0.076100000000     0.859500000000    -0.286496   
O        O      0.019000000000     0.987400000000     0.873600000000    -0.286496   
O        O      0.098500000000     0.882700000000     0.880700000000    -0.286496   
O        O      0.445900000000     0.856000000000     0.219500000000    -0.286496   
O        O      0.302600000000     0.853500000000     0.250500000000    -0.286496   
O        O      0.342500000000     0.859500000000     0.076100000000    -0.286496   
O        O      0.481000000000     0.873600000000     0.987400000000    -0.286496   
O        O      0.401500000000     0.880700000000     0.882700000000    -0.286496   
O        O      0.445900000000     0.144000000000     0.780500000000    -0.286496   
O        O      0.302600000000     0.146500000000     0.749500000000    -0.286496   
O        O      0.342500000000     0.140500000000     0.923900000000    -0.286496   
O        O      0.481000000000     0.126400000000     0.012600000000    -0.286496   
O        O      0.401500000000     0.119300000000     0.117300000000    -0.286496   
O        O      0.554100000000     0.780500000000     0.856000000000    -0.286496   
O        O      0.697400000000     0.749500000000     0.853500000000    -0.286496   
O        O      0.657500000000     0.923900000000     0.859500000000    -0.286496   
O        O      0.519000000000     0.012600000000     0.873600000000    -0.286496   
O        O      0.598500000000     0.117300000000     0.880700000000    -0.286496   
O        O      0.554100000000     0.219500000000     0.144000000000    -0.286496   
O        O      0.697400000000     0.250500000000     0.146500000000    -0.286496   
O        O      0.657500000000     0.076100000000     0.140500000000    -0.286496   
O        O      0.519000000000     0.987400000000     0.126400000000    -0.286496   
O        O      0.598500000000     0.882700000000     0.119300000000    -0.286496   


