data_MAFZOK_original

_audit_creation_method RASPA-1.0
_audit_creation_date 2022-1-31
_audit_author_name 'Felipe Lopes de Oliveira <felipe.lopes.oliveira@ibm.com>'

_cell_length_a    7.419
_cell_length_b    9.969
_cell_length_c    11.148
_cell_angle_alpha 65.152
_cell_angle_beta  76.109
_cell_angle_gamma 69.965
_cell_volume      698.42

_symmetry_cell_setting          triclinic
_symmetry_space_group_name_Hall 'P 1'
_symmetry_space_group_name_H-M  'P 1'
_symmetry_Int_Tables_number     1

_symmetry_equiv_pos_as_xyz 'x,y,z'

loop_
_atom_site_label
_atom_site_type_symbol
_atom_site_fract_x
_atom_site_fract_y
_atom_site_fract_z
_atom_site_charge
Zn       Zn     0.556660000000     0.353070000000     0.294930000000     0.443575   
Zn       Zn     0.925900000000     0.281990000000     0.047920000000     0.443575   
Zn       Zn     0.443340000000     0.646930000000     0.705070000000     0.443575   
Zn       Zn     0.074100000000     0.718010000000     0.952080000000     0.443575   
Zn       Zn     0.500000000000     0.500000000000     0.000000000000     0.443575   
P        P      0.147600000000     0.388600000000     0.191210000000     0.402968   
P        P      0.852400000000     0.611400000000     0.808790000000     0.402968   
H        H      0.254700000000     0.103800000000     0.406700000000     0.10288    
H        H      0.846500000000     0.503600000000     0.368200000000     0.10288    
H        H      0.876400000000     0.151100000000     0.720200000000     0.10288    
H        H      0.765000000000     0.507000000000     0.113000000000     0.10288    
H        H      0.745300000000     0.896200000000     0.593300000000     0.10288    
H        H      0.153500000000     0.496400000000     0.631800000000     0.10288    
H        H      0.123600000000     0.848900000000     0.279800000000     0.10288    
H        H      0.235000000000     0.493000000000     0.887000000000     0.10288    
C        C      0.150300000000     0.163400000000     0.444100000000     0.0600304  
C        C      0.059900000000     0.314000000000     0.365400000000     0.0600304  
C        C      0.904400000000     0.402800000000     0.420300000000     0.0600304  
C        C      0.083400000000     0.102700000000     0.578900000000     0.0600304  
C        C      0.834400000000     0.341400000000     0.553800000000     0.0600304  
C        C      0.666500000000     0.434000000000     0.617600000000     0.0600304  
C        C      0.924200000000     0.192000000000     0.631300000000     0.0600304  
C        C      0.182700000000     0.943800000000     0.667200000000     0.0600304  
C        C      0.849700000000     0.836600000000     0.555900000000     0.0600304  
C        C      0.940100000000     0.686000000000     0.634600000000     0.0600304  
C        C      0.095600000000     0.597200000000     0.579700000000     0.0600304  
C        C      0.916600000000     0.897300000000     0.421100000000     0.0600304  
C        C      0.165600000000     0.658600000000     0.446200000000     0.0600304  
C        C      0.333500000000     0.566000000000     0.382400000000     0.0600304  
C        C      0.075800000000     0.808000000000     0.368700000000     0.0600304  
C        C      0.817300000000     0.056200000000     0.332800000000     0.0600304  
O        O      0.707100000000     0.439100000000     0.122200000000    -0.300459   
O        O      0.360200000000     0.383100000000     0.182100000000    -0.300459   
O        O      0.611100000000     0.579400000000     0.558200000000    -0.300459   
O        O      0.584800000000     0.368200000000     0.728300000000    -0.300459   
O        O      0.307500000000     0.858700000000     0.609600000000    -0.300459   
O        O      0.134600000000     0.905700000000     0.789400000000    -0.300459   
O        O      0.140800000000     0.280400000000     0.129400000000    -0.300459   
O        O      0.022800000000     0.550900000000     0.132400000000    -0.300459   
O        O      0.292900000000     0.560900000000     0.877800000000    -0.300459   
O        O      0.639800000000     0.616900000000     0.817900000000    -0.300459   
O        O      0.388900000000     0.420600000000     0.441800000000    -0.300459   
O        O      0.415200000000     0.631800000000     0.271700000000    -0.300459   
O        O      0.692500000000     0.141300000000     0.390400000000    -0.300459   
O        O      0.865400000000     0.094300000000     0.210600000000    -0.300459   
O        O      0.859200000000     0.719600000000     0.870600000000    -0.300459   
O        O      0.977200000000     0.449100000000     0.867600000000    -0.300459   


