data_MAPFOY_original

_audit_creation_method RASPA-1.0
_audit_creation_date 2022-1-31
_audit_author_name 'Felipe Lopes de Oliveira <felipe.lopes.oliveira@ibm.com>'

_cell_length_a    11.095
_cell_length_b    17.97
_cell_length_c    19.484
_cell_angle_alpha 90
_cell_angle_beta  90
_cell_angle_gamma 90
_cell_volume      3884.66

_symmetry_cell_setting          triclinic
_symmetry_space_group_name_Hall 'P 1'
_symmetry_space_group_name_H-M  'P 1'
_symmetry_Int_Tables_number     1

_symmetry_equiv_pos_as_xyz 'x,y,z'

loop_
_atom_site_label
_atom_site_type_symbol
_atom_site_fract_x
_atom_site_fract_y
_atom_site_fract_z
_atom_site_charge
Ti       Ti     0.099700000000     0.458500000000     0.553800000000     1.43572    
Ti       Ti     0.400300000000     0.541500000000     0.053800000000     1.43572    
Ti       Ti     0.900300000000     0.958500000000     0.946200000000     1.43572    
Ti       Ti     0.599700000000     0.041500000000     0.446200000000     1.43572    
Ti       Ti     0.900300000000     0.541500000000     0.446200000000     1.43572    
Ti       Ti     0.599700000000     0.458500000000     0.946200000000     1.43572    
Ti       Ti     0.099700000000     0.041500000000     0.053800000000     1.43572    
Ti       Ti     0.400300000000     0.958500000000     0.553800000000     1.43572    
H        H      0.232100000000     0.801600000000     0.498100000000     0.0965664  
H        H      0.127200000000     0.676200000000     0.508500000000     0.0965664  
H        H      0.240800000000     0.505700000000     0.392500000000     0.0965664  
H        H      0.391900000000     0.576500000000     0.347900000000     0.0965664  
H        H      0.499100000000     0.697300000000     0.340500000000     0.0965664  
H        H      0.517500000000     0.819300000000     0.371900000000     0.0965664  
H        H      0.699300000000     0.610000000000     0.804500000000     0.0965664  
H        H      0.682900000000     0.635700000000     0.689000000000     0.0965664  
H        H      0.573900000000     0.620400000000     0.577700000000     0.0965664  
H        H      0.427600000000     0.565600000000     0.514300000000     0.0965664  
H        H      0.305600000000     0.458300000000     0.681800000000     0.0965664  
H        H      0.407700000000     0.477900000000     0.794800000000     0.0965664  
H        H      0.267900000000     0.198400000000     0.998100000000     0.0965664  
H        H      0.372800000000     0.323800000000     0.008500000000     0.0965664  
H        H      0.259200000000     0.494300000000     0.892500000000     0.0965664  
H        H      0.108100000000     0.423500000000     0.847900000000     0.0965664  
H        H      0.000900000000     0.302700000000     0.840500000000     0.0965664  
H        H      0.982500000000     0.180700000000     0.871900000000     0.0965664  
H        H      0.800700000000     0.390000000000     0.304500000000     0.0965664  
H        H      0.817100000000     0.364300000000     0.189000000000     0.0965664  
H        H      0.926100000000     0.379600000000     0.077700000000     0.0965664  
H        H      0.072400000000     0.434400000000     0.014300000000     0.0965664  
H        H      0.194400000000     0.541700000000     0.181800000000     0.0965664  
H        H      0.092300000000     0.522100000000     0.294800000000     0.0965664  
H        H      0.767900000000     0.301600000000     0.001900000000     0.0965664  
H        H      0.872800000000     0.176200000000     0.991500000000     0.0965664  
H        H      0.759200000000     0.005700000000     0.107500000000     0.0965664  
H        H      0.608100000000     0.076500000000     0.152100000000     0.0965664  
H        H      0.500900000000     0.197300000000     0.159500000000     0.0965664  
H        H      0.482500000000     0.319300000000     0.128100000000     0.0965664  
H        H      0.300700000000     0.110000000000     0.695500000000     0.0965664  
H        H      0.317100000000     0.135700000000     0.811000000000     0.0965664  
H        H      0.426100000000     0.120400000000     0.922300000000     0.0965664  
H        H      0.572400000000     0.065600000000     0.985700000000     0.0965664  
H        H      0.694400000000     0.958300000000     0.818200000000     0.0965664  
H        H      0.592300000000     0.977900000000     0.705200000000     0.0965664  
H        H      0.732100000000     0.698400000000     0.501900000000     0.0965664  
H        H      0.627200000000     0.823800000000     0.491500000000     0.0965664  
H        H      0.740800000000     0.994300000000     0.607500000000     0.0965664  
H        H      0.891900000000     0.923500000000     0.652100000000     0.0965664  
H        H      0.999100000000     0.802700000000     0.659500000000     0.0965664  
H        H      0.017500000000     0.680700000000     0.628100000000     0.0965664  
H        H      0.199300000000     0.890000000000     0.195500000000     0.0965664  
H        H      0.182900000000     0.864300000000     0.311000000000     0.0965664  
H        H      0.073900000000     0.879600000000     0.422300000000     0.0965664  
H        H      0.927600000000     0.934400000000     0.485700000000     0.0965664  
H        H      0.805600000000     0.041700000000     0.318200000000     0.0965664  
H        H      0.907700000000     0.022100000000     0.205200000000     0.0965664  
H        H      0.767900000000     0.198400000000     0.501900000000     0.0965664  
H        H      0.872800000000     0.323800000000     0.491500000000     0.0965664  
H        H      0.759200000000     0.494300000000     0.607500000000     0.0965664  
H        H      0.608100000000     0.423500000000     0.652100000000     0.0965664  
H        H      0.500900000000     0.302700000000     0.659500000000     0.0965664  
H        H      0.482500000000     0.180700000000     0.628100000000     0.0965664  
H        H      0.300700000000     0.390000000000     0.195500000000     0.0965664  
H        H      0.317100000000     0.364300000000     0.311000000000     0.0965664  
H        H      0.426100000000     0.379600000000     0.422300000000     0.0965664  
H        H      0.572400000000     0.434400000000     0.485700000000     0.0965664  
H        H      0.694400000000     0.541700000000     0.318200000000     0.0965664  
H        H      0.592300000000     0.522100000000     0.205200000000     0.0965664  
H        H      0.732100000000     0.801600000000     0.001900000000     0.0965664  
H        H      0.627200000000     0.676200000000     0.991500000000     0.0965664  
H        H      0.740800000000     0.505700000000     0.107500000000     0.0965664  
H        H      0.891900000000     0.576500000000     0.152100000000     0.0965664  
H        H      0.999100000000     0.697300000000     0.159500000000     0.0965664  
H        H      0.017500000000     0.819300000000     0.128100000000     0.0965664  
H        H      0.199300000000     0.610000000000     0.695500000000     0.0965664  
H        H      0.182900000000     0.635700000000     0.811000000000     0.0965664  
H        H      0.073900000000     0.620400000000     0.922300000000     0.0965664  
H        H      0.927600000000     0.565600000000     0.985700000000     0.0965664  
H        H      0.805600000000     0.458300000000     0.818200000000     0.0965664  
H        H      0.907700000000     0.477900000000     0.705200000000     0.0965664  
H        H      0.232100000000     0.698400000000     0.998100000000     0.0965664  
H        H      0.127200000000     0.823800000000     0.008500000000     0.0965664  
H        H      0.240800000000     0.994300000000     0.892500000000     0.0965664  
H        H      0.391900000000     0.923500000000     0.847900000000     0.0965664  
H        H      0.499100000000     0.802700000000     0.840500000000     0.0965664  
H        H      0.517500000000     0.680700000000     0.871900000000     0.0965664  
H        H      0.699300000000     0.890000000000     0.304500000000     0.0965664  
H        H      0.682900000000     0.864300000000     0.189000000000     0.0965664  
H        H      0.573900000000     0.879600000000     0.077700000000     0.0965664  
H        H      0.427600000000     0.934400000000     0.014300000000     0.0965664  
H        H      0.305600000000     0.041700000000     0.181800000000     0.0965664  
H        H      0.407700000000     0.022100000000     0.294800000000     0.0965664  
H        H      0.267900000000     0.301600000000     0.498100000000     0.0965664  
H        H      0.372800000000     0.176200000000     0.508500000000     0.0965664  
H        H      0.259200000000     0.005700000000     0.392500000000     0.0965664  
H        H      0.108100000000     0.076500000000     0.347900000000     0.0965664  
H        H      0.000900000000     0.197300000000     0.340500000000     0.0965664  
H        H      0.982500000000     0.319300000000     0.371900000000     0.0965664  
H        H      0.800700000000     0.110000000000     0.804500000000     0.0965664  
H        H      0.817100000000     0.135700000000     0.689000000000     0.0965664  
H        H      0.926100000000     0.120400000000     0.577700000000     0.0965664  
H        H      0.072400000000     0.065600000000     0.514300000000     0.0965664  
H        H      0.194400000000     0.958300000000     0.681800000000     0.0965664  
H        H      0.092300000000     0.977900000000     0.794800000000     0.0965664  
C        C      0.374700000000     0.821500000000     0.437600000000    -0.0304725  
C        C      0.284700000000     0.780100000000     0.466600000000    -0.0304725  
C        C      0.272300000000     0.703900000000     0.448200000000    -0.0304725  
C        C      0.179900000000     0.657300000000     0.475800000000    -0.0304725  
C        C      0.168100000000     0.585200000000     0.454600000000    -0.0304725  
C        C      0.249000000000     0.555000000000     0.406100000000    -0.0304725  
C        C      0.338800000000     0.597400000000     0.379300000000    -0.0304725  
C        C      0.352700000000     0.673600000000     0.398700000000    -0.0304725  
C        C      0.444900000000     0.717700000000     0.371700000000    -0.0304725  
C        C      0.456100000000     0.790300000000     0.390400000000    -0.0304725  
C        C      0.552000000000     0.541200000000     0.810400000000    -0.0304725  
C        C      0.637400000000     0.589000000000     0.778800000000    -0.0304725  
C        C      0.627500000000     0.604000000000     0.709600000000    -0.0304725  
C        C      0.535000000000     0.572300000000     0.669700000000    -0.0304725  
C        C      0.521300000000     0.587300000000     0.598800000000    -0.0304725  
C        C      0.434000000000     0.554900000000     0.560900000000    -0.0304725  
C        C      0.351200000000     0.504300000000     0.592100000000    -0.0304725  
C        C      0.360600000000     0.490300000000     0.661200000000    -0.0304725  
C        C      0.450800000000     0.523100000000     0.701800000000    -0.0304725  
C        C      0.462400000000     0.509300000000     0.773200000000    -0.0304725  
C        C      0.125300000000     0.178500000000     0.937600000000    -0.0304725  
C        C      0.215300000000     0.219900000000     0.966600000000    -0.0304725  
C        C      0.227700000000     0.296100000000     0.948200000000    -0.0304725  
C        C      0.320100000000     0.342700000000     0.975800000000    -0.0304725  
C        C      0.331900000000     0.414800000000     0.954600000000    -0.0304725  
C        C      0.251000000000     0.445000000000     0.906100000000    -0.0304725  
C        C      0.161200000000     0.402600000000     0.879300000000    -0.0304725  
C        C      0.147300000000     0.326400000000     0.898700000000    -0.0304725  
C        C      0.055100000000     0.282300000000     0.871700000000    -0.0304725  
C        C      0.043900000000     0.209700000000     0.890400000000    -0.0304725  
C        C      0.948000000000     0.458800000000     0.310400000000    -0.0304725  
C        C      0.862600000000     0.411000000000     0.278800000000    -0.0304725  
C        C      0.872500000000     0.396000000000     0.209600000000    -0.0304725  
C        C      0.965000000000     0.427700000000     0.169700000000    -0.0304725  
C        C      0.978700000000     0.412700000000     0.098800000000    -0.0304725  
C        C      0.066000000000     0.445100000000     0.060900000000    -0.0304725  
C        C      0.148800000000     0.495700000000     0.092100000000    -0.0304725  
C        C      0.139400000000     0.509700000000     0.161200000000    -0.0304725  
C        C      0.049200000000     0.476900000000     0.201800000000    -0.0304725  
C        C      0.037600000000     0.490700000000     0.273200000000    -0.0304725  
C        C      0.625300000000     0.321500000000     0.062400000000    -0.0304725  
C        C      0.715300000000     0.280100000000     0.033400000000    -0.0304725  
C        C      0.727700000000     0.203900000000     0.051800000000    -0.0304725  
C        C      0.820100000000     0.157300000000     0.024200000000    -0.0304725  
C        C      0.831900000000     0.085200000000     0.045400000000    -0.0304725  
C        C      0.751000000000     0.055000000000     0.093900000000    -0.0304725  
C        C      0.661200000000     0.097400000000     0.120700000000    -0.0304725  
C        C      0.647300000000     0.173600000000     0.101300000000    -0.0304725  
C        C      0.555100000000     0.217700000000     0.128300000000    -0.0304725  
C        C      0.543900000000     0.290300000000     0.109600000000    -0.0304725  
C        C      0.448000000000     0.041200000000     0.689600000000    -0.0304725  
C        C      0.362600000000     0.089000000000     0.721200000000    -0.0304725  
C        C      0.372500000000     0.104000000000     0.790400000000    -0.0304725  
C        C      0.465000000000     0.072300000000     0.830300000000    -0.0304725  
C        C      0.478700000000     0.087300000000     0.901200000000    -0.0304725  
C        C      0.566000000000     0.054900000000     0.939100000000    -0.0304725  
C        C      0.648800000000     0.004300000000     0.907900000000    -0.0304725  
C        C      0.639400000000     0.990300000000     0.838800000000    -0.0304725  
C        C      0.549200000000     0.023100000000     0.798200000000    -0.0304725  
C        C      0.537600000000     0.009300000000     0.726800000000    -0.0304725  
C        C      0.874700000000     0.678500000000     0.562400000000    -0.0304725  
C        C      0.784700000000     0.719900000000     0.533400000000    -0.0304725  
C        C      0.772300000000     0.796100000000     0.551800000000    -0.0304725  
C        C      0.679900000000     0.842700000000     0.524200000000    -0.0304725  
C        C      0.668100000000     0.914800000000     0.545400000000    -0.0304725  
C        C      0.749000000000     0.945000000000     0.593900000000    -0.0304725  
C        C      0.838800000000     0.902600000000     0.620700000000    -0.0304725  
C        C      0.852700000000     0.826400000000     0.601300000000    -0.0304725  
C        C      0.944900000000     0.782300000000     0.628300000000    -0.0304725  
C        C      0.956100000000     0.709700000000     0.609600000000    -0.0304725  
C        C      0.052000000000     0.958800000000     0.189600000000    -0.0304725  
C        C      0.137400000000     0.911000000000     0.221200000000    -0.0304725  
C        C      0.127500000000     0.896000000000     0.290400000000    -0.0304725  
C        C      0.035000000000     0.927700000000     0.330300000000    -0.0304725  
C        C      0.021300000000     0.912700000000     0.401200000000    -0.0304725  
C        C      0.934000000000     0.945100000000     0.439100000000    -0.0304725  
C        C      0.851200000000     0.995700000000     0.407900000000    -0.0304725  
C        C      0.860600000000     0.009700000000     0.338800000000    -0.0304725  
C        C      0.950800000000     0.976900000000     0.298200000000    -0.0304725  
C        C      0.962400000000     0.990700000000     0.226800000000    -0.0304725  
C        C      0.625300000000     0.178500000000     0.562400000000    -0.0304725  
C        C      0.715300000000     0.219900000000     0.533400000000    -0.0304725  
C        C      0.727700000000     0.296100000000     0.551800000000    -0.0304725  
C        C      0.820100000000     0.342700000000     0.524200000000    -0.0304725  
C        C      0.831900000000     0.414800000000     0.545400000000    -0.0304725  
C        C      0.751000000000     0.445000000000     0.593900000000    -0.0304725  
C        C      0.661200000000     0.402600000000     0.620700000000    -0.0304725  
C        C      0.647300000000     0.326400000000     0.601300000000    -0.0304725  
C        C      0.555100000000     0.282300000000     0.628300000000    -0.0304725  
C        C      0.543900000000     0.209700000000     0.609600000000    -0.0304725  
C        C      0.448000000000     0.458800000000     0.189600000000    -0.0304725  
C        C      0.362600000000     0.411000000000     0.221200000000    -0.0304725  
C        C      0.372500000000     0.396000000000     0.290400000000    -0.0304725  
C        C      0.465000000000     0.427700000000     0.330300000000    -0.0304725  
C        C      0.478700000000     0.412700000000     0.401200000000    -0.0304725  
C        C      0.566000000000     0.445100000000     0.439100000000    -0.0304725  
C        C      0.648800000000     0.495700000000     0.407900000000    -0.0304725  
C        C      0.639400000000     0.509700000000     0.338800000000    -0.0304725  
C        C      0.549200000000     0.476900000000     0.298200000000    -0.0304725  
C        C      0.537600000000     0.490700000000     0.226800000000    -0.0304725  
C        C      0.874700000000     0.821500000000     0.062400000000    -0.0304725  
C        C      0.784700000000     0.780100000000     0.033400000000    -0.0304725  
C        C      0.772300000000     0.703900000000     0.051800000000    -0.0304725  
C        C      0.679900000000     0.657300000000     0.024200000000    -0.0304725  
C        C      0.668100000000     0.585200000000     0.045400000000    -0.0304725  
C        C      0.749000000000     0.555000000000     0.093900000000    -0.0304725  
C        C      0.838800000000     0.597400000000     0.120700000000    -0.0304725  
C        C      0.852700000000     0.673600000000     0.101300000000    -0.0304725  
C        C      0.944900000000     0.717700000000     0.128300000000    -0.0304725  
C        C      0.956100000000     0.790300000000     0.109600000000    -0.0304725  
C        C      0.052000000000     0.541200000000     0.689600000000    -0.0304725  
C        C      0.137400000000     0.589000000000     0.721200000000    -0.0304725  
C        C      0.127500000000     0.604000000000     0.790400000000    -0.0304725  
C        C      0.035000000000     0.572300000000     0.830300000000    -0.0304725  
C        C      0.021300000000     0.587300000000     0.901200000000    -0.0304725  
C        C      0.934000000000     0.554900000000     0.939100000000    -0.0304725  
C        C      0.851200000000     0.504300000000     0.907900000000    -0.0304725  
C        C      0.860600000000     0.490300000000     0.838800000000    -0.0304725  
C        C      0.950800000000     0.523100000000     0.798200000000    -0.0304725  
C        C      0.962400000000     0.509300000000     0.726800000000    -0.0304725  
C        C      0.374700000000     0.678500000000     0.937600000000    -0.0304725  
C        C      0.284700000000     0.719900000000     0.966600000000    -0.0304725  
C        C      0.272300000000     0.796100000000     0.948200000000    -0.0304725  
C        C      0.179900000000     0.842700000000     0.975800000000    -0.0304725  
C        C      0.168100000000     0.914800000000     0.954600000000    -0.0304725  
C        C      0.249000000000     0.945000000000     0.906100000000    -0.0304725  
C        C      0.338800000000     0.902600000000     0.879300000000    -0.0304725  
C        C      0.352700000000     0.826400000000     0.898700000000    -0.0304725  
C        C      0.444900000000     0.782300000000     0.871700000000    -0.0304725  
C        C      0.456100000000     0.709700000000     0.890400000000    -0.0304725  
C        C      0.552000000000     0.958800000000     0.310400000000    -0.0304725  
C        C      0.637400000000     0.911000000000     0.278800000000    -0.0304725  
C        C      0.627500000000     0.896000000000     0.209600000000    -0.0304725  
C        C      0.535000000000     0.927700000000     0.169700000000    -0.0304725  
C        C      0.521300000000     0.912700000000     0.098800000000    -0.0304725  
C        C      0.434000000000     0.945100000000     0.060900000000    -0.0304725  
C        C      0.351200000000     0.995700000000     0.092100000000    -0.0304725  
C        C      0.360600000000     0.009700000000     0.161200000000    -0.0304725  
C        C      0.450800000000     0.976900000000     0.201800000000    -0.0304725  
C        C      0.462400000000     0.990700000000     0.273200000000    -0.0304725  
C        C      0.125300000000     0.321500000000     0.437600000000    -0.0304725  
C        C      0.215300000000     0.280100000000     0.466600000000    -0.0304725  
C        C      0.227700000000     0.203900000000     0.448200000000    -0.0304725  
C        C      0.320100000000     0.157300000000     0.475800000000    -0.0304725  
C        C      0.331900000000     0.085200000000     0.454600000000    -0.0304725  
C        C      0.251000000000     0.055000000000     0.406100000000    -0.0304725  
C        C      0.161200000000     0.097400000000     0.379300000000    -0.0304725  
C        C      0.147300000000     0.173600000000     0.398700000000    -0.0304725  
C        C      0.055100000000     0.217700000000     0.371700000000    -0.0304725  
C        C      0.043900000000     0.290300000000     0.390400000000    -0.0304725  
C        C      0.948000000000     0.041200000000     0.810400000000    -0.0304725  
C        C      0.862600000000     0.089000000000     0.778800000000    -0.0304725  
C        C      0.872500000000     0.104000000000     0.709600000000    -0.0304725  
C        C      0.965000000000     0.072300000000     0.669700000000    -0.0304725  
C        C      0.978700000000     0.087300000000     0.598800000000    -0.0304725  
C        C      0.066000000000     0.054900000000     0.560900000000    -0.0304725  
C        C      0.148800000000     0.004300000000     0.592100000000    -0.0304725  
C        C      0.139400000000     0.990300000000     0.661200000000    -0.0304725  
C        C      0.049200000000     0.023100000000     0.701800000000    -0.0304725  
C        C      0.037600000000     0.009300000000     0.773200000000    -0.0304725  
O        O      0.383800000000     0.896300000000     0.453600000000    -0.496266   
O        O      0.077100000000     0.541300000000     0.480100000000    -0.496266   
O        O      0.560100000000     0.531600000000     0.880000000000    -0.496266   
O        O      0.263400000000     0.472700000000     0.553300000000    -0.496266   
O        O      0.116200000000     0.103700000000     0.953600000000    -0.496266   
O        O      0.422900000000     0.458700000000     0.980100000000    -0.496266   
O        O      0.939900000000     0.468400000000     0.380000000000    -0.496266   
O        O      0.236600000000     0.527300000000     0.053300000000    -0.496266   
O        O      0.616200000000     0.396300000000     0.046400000000    -0.496266   
O        O      0.922900000000     0.041300000000     0.019900000000    -0.496266   
O        O      0.439900000000     0.031600000000     0.620000000000    -0.496266   
O        O      0.736600000000     0.972700000000     0.946700000000    -0.496266   
O        O      0.883800000000     0.603700000000     0.546400000000    -0.496266   
O        O      0.577100000000     0.958700000000     0.519900000000    -0.496266   
O        O      0.060100000000     0.968400000000     0.120000000000    -0.496266   
O        O      0.763400000000     0.027300000000     0.446700000000    -0.496266   
O        O      0.616200000000     0.103700000000     0.546400000000    -0.496266   
O        O      0.922900000000     0.458700000000     0.519900000000    -0.496266   
O        O      0.439900000000     0.468400000000     0.120000000000    -0.496266   
O        O      0.736600000000     0.527300000000     0.446700000000    -0.496266   
O        O      0.883800000000     0.896300000000     0.046400000000    -0.496266   
O        O      0.577100000000     0.541300000000     0.019900000000    -0.496266   
O        O      0.060100000000     0.531600000000     0.620000000000    -0.496266   
O        O      0.763400000000     0.472700000000     0.946700000000    -0.496266   
O        O      0.383800000000     0.603700000000     0.953600000000    -0.496266   
O        O      0.077100000000     0.958700000000     0.980100000000    -0.496266   
O        O      0.560100000000     0.968400000000     0.380000000000    -0.496266   
O        O      0.263400000000     0.027300000000     0.053300000000    -0.496266   
O        O      0.116200000000     0.396300000000     0.453600000000    -0.496266   
O        O      0.422900000000     0.041300000000     0.480100000000    -0.496266   
O        O      0.939900000000     0.031600000000     0.880000000000    -0.496266   
O        O      0.236600000000     0.972700000000     0.553300000000    -0.496266   


