data_MAPFIS_original

_audit_creation_method RASPA-1.0
_audit_creation_date 2022-1-31
_audit_author_name 'Felipe Lopes de Oliveira <felipe.lopes.oliveira@ibm.com>'

_cell_length_a    10.762
_cell_length_b    16.137
_cell_length_c    20.368
_cell_angle_alpha 111.65
_cell_angle_beta  90
_cell_angle_gamma 90
_cell_volume      3287.7

_symmetry_cell_setting          triclinic
_symmetry_space_group_name_Hall 'P 1'
_symmetry_space_group_name_H-M  'P 1'
_symmetry_Int_Tables_number     1

_symmetry_equiv_pos_as_xyz 'x,y,z'

loop_
_atom_site_label
_atom_site_type_symbol
_atom_site_fract_x
_atom_site_fract_y
_atom_site_fract_z
_atom_site_charge
Ti       Ti     0.359800000000     0.461800000000     0.788300000000     1.72133    
Ti       Ti     0.578500000000     0.540400000000     0.713800000000     1.72133    
Ti       Ti     0.859800000000     0.038200000000     0.711700000000     1.72133    
Ti       Ti     0.078500000000     0.959600000000     0.786200000000     1.72133    
Ti       Ti     0.640200000000     0.538200000000     0.211700000000     1.72133    
Ti       Ti     0.421500000000     0.459600000000     0.286200000000     1.72133    
Ti       Ti     0.140200000000     0.961800000000     0.288300000000     1.72133    
Ti       Ti     0.921500000000     0.040400000000     0.213800000000     1.72133    
H        H      0.587300000000     0.307300000000     0.631500000000     0.0797098  
H        H      0.713900000000     0.183800000000     0.616900000000     0.0797098  
H        H      0.277200000000     0.224200000000     0.675500000000     0.0797098  
H        H      0.652500000000     0.398800000000     0.838500000000     0.0797098  
H        H      0.162000000000     0.728300000000     0.682400000000     0.0797098  
H        H      0.292500000000     0.607500000000     0.667400000000     0.0797098  
H        H      0.358400000000     0.704000000000     0.875400000000     0.0797098  
H        H      0.221400000000     0.819300000000     0.890200000000     0.0797098  
H        H      0.073400000000     0.636300000000     0.807700000000     0.0797098  
H        H      0.879600000000     0.637100000000     0.756400000000     0.0797098  
H        H      0.871900000000     0.369700000000     0.689700000000     0.0797098  
H        H      0.065900000000     0.368200000000     0.737700000000     0.0797098  
H        H      0.445500000000     0.372900000000     0.904000000000     0.0797098  
H        H      0.490000000000     0.638700000000     0.990700000000     0.0797098  
H        H      0.316400000000     0.481700000000     0.552100000000     0.0797098  
H        H      0.688500000000     0.511400000000     0.560100000000     0.0797098  
H        H      0.087300000000     0.192700000000     0.868500000000     0.0797098  
H        H      0.213900000000     0.316200000000     0.883100000000     0.0797098  
H        H      0.777200000000     0.275800000000     0.824500000000     0.0797098  
H        H      0.152500000000     0.101200000000     0.661500000000     0.0797098  
H        H      0.662000000000     0.771700000000     0.817600000000     0.0797098  
H        H      0.792500000000     0.892500000000     0.832600000000     0.0797098  
H        H      0.858400000000     0.796000000000     0.624600000000     0.0797098  
H        H      0.721400000000     0.680700000000     0.609800000000     0.0797098  
H        H      0.573400000000     0.863700000000     0.692300000000     0.0797098  
H        H      0.379600000000     0.862900000000     0.743600000000     0.0797098  
H        H      0.371900000000     0.130300000000     0.810300000000     0.0797098  
H        H      0.565900000000     0.131800000000     0.762300000000     0.0797098  
H        H      0.945500000000     0.127100000000     0.596000000000     0.0797098  
H        H      0.990000000000     0.861300000000     0.509300000000     0.0797098  
H        H      0.816400000000     0.018300000000     0.947900000000     0.0797098  
H        H      0.188500000000     0.988600000000     0.939900000000     0.0797098  
H        H      0.412700000000     0.692700000000     0.368500000000     0.0797098  
H        H      0.286100000000     0.816200000000     0.383100000000     0.0797098  
H        H      0.722800000000     0.775800000000     0.324500000000     0.0797098  
H        H      0.347500000000     0.601200000000     0.161500000000     0.0797098  
H        H      0.838000000000     0.271700000000     0.317600000000     0.0797098  
H        H      0.707500000000     0.392500000000     0.332600000000     0.0797098  
H        H      0.641600000000     0.296000000000     0.124600000000     0.0797098  
H        H      0.778600000000     0.180700000000     0.109800000000     0.0797098  
H        H      0.926600000000     0.363700000000     0.192300000000     0.0797098  
H        H      0.120400000000     0.362900000000     0.243600000000     0.0797098  
H        H      0.128100000000     0.630300000000     0.310300000000     0.0797098  
H        H      0.934100000000     0.631800000000     0.262300000000     0.0797098  
H        H      0.554500000000     0.627100000000     0.096000000000     0.0797098  
H        H      0.510000000000     0.361300000000     0.009300000000     0.0797098  
H        H      0.683600000000     0.518300000000     0.447900000000     0.0797098  
H        H      0.311500000000     0.488600000000     0.439900000000     0.0797098  
H        H      0.912700000000     0.807300000000     0.131500000000     0.0797098  
H        H      0.786100000000     0.683800000000     0.116900000000     0.0797098  
H        H      0.222800000000     0.724200000000     0.175500000000     0.0797098  
H        H      0.847500000000     0.898800000000     0.338500000000     0.0797098  
H        H      0.338000000000     0.228300000000     0.182400000000     0.0797098  
H        H      0.207500000000     0.107500000000     0.167400000000     0.0797098  
H        H      0.141600000000     0.204000000000     0.375400000000     0.0797098  
H        H      0.278600000000     0.319300000000     0.390200000000     0.0797098  
H        H      0.426600000000     0.136300000000     0.307700000000     0.0797098  
H        H      0.620400000000     0.137100000000     0.256400000000     0.0797098  
H        H      0.628100000000     0.869700000000     0.189700000000     0.0797098  
H        H      0.434100000000     0.868200000000     0.237700000000     0.0797098  
H        H      0.054500000000     0.872900000000     0.404000000000     0.0797098  
H        H      0.010000000000     0.138700000000     0.490700000000     0.0797098  
H        H      0.183600000000     0.981700000000     0.052100000000     0.0797098  
H        H      0.811500000000     0.011400000000     0.060100000000     0.0797098  
C        C      0.602200000000     0.362600000000     0.736500000000    -0.00604546 
C        C      0.624100000000     0.300800000000     0.670600000000    -0.00604546 
C        C      0.702000000000     0.227200000000     0.661500000000    -0.00604546 
C        C      0.260800000000     0.279900000000     0.780400000000    -0.00604546 
C        C      0.240100000000     0.218000000000     0.714600000000    -0.00604546 
C        C      0.663000000000     0.355000000000     0.793900000000    -0.00604546 
C        C      0.177500000000     0.784900000000     0.787300000000    -0.00604546 
C        C      0.199800000000     0.722500000000     0.721500000000    -0.00604546 
C        C      0.278900000000     0.650100000000     0.712200000000    -0.00604546 
C        C      0.336200000000     0.642800000000     0.770300000000    -0.00604546 
C        C      0.316800000000     0.707500000000     0.836500000000    -0.00604546 
C        C      0.236200000000     0.777300000000     0.845200000000    -0.00604546 
C        C      0.088600000000     0.503900000000     0.778700000000    -0.00604546 
C        C      0.032700000000     0.582700000000     0.784000000000    -0.00604546 
C        C      0.915600000000     0.583800000000     0.754200000000    -0.00604546 
C        C      0.853600000000     0.501500000000     0.720900000000    -0.00604546 
C        C      0.911900000000     0.423500000000     0.714100000000    -0.00604546 
C        C      0.028200000000     0.422000000000     0.742400000000    -0.00604546 
C        C      0.456000000000     0.508900000000     0.938800000000    -0.00604546 
C        C      0.466100000000     0.423700000000     0.942700000000    -0.00604546 
C        C      0.492700000000     0.583200000000     0.994700000000    -0.00604546 
C        C      0.500500000000     0.486700000000     0.565500000000    -0.00604546 
C        C      0.390800000000     0.487000000000     0.530700000000    -0.00604546 
C        C      0.613700000000     0.505000000000     0.535800000000    -0.00604546 
C        C      0.102200000000     0.137400000000     0.763500000000    -0.00604546 
C        C      0.124100000000     0.199200000000     0.829400000000    -0.00604546 
C        C      0.202000000000     0.272800000000     0.838500000000    -0.00604546 
C        C      0.760800000000     0.220100000000     0.719600000000    -0.00604546 
C        C      0.740100000000     0.282000000000     0.785400000000    -0.00604546 
C        C      0.163000000000     0.145000000000     0.706100000000    -0.00604546 
C        C      0.677500000000     0.715100000000     0.712700000000    -0.00604546 
C        C      0.699800000000     0.777500000000     0.778500000000    -0.00604546 
C        C      0.778900000000     0.849900000000     0.787800000000    -0.00604546 
C        C      0.836200000000     0.857200000000     0.729700000000    -0.00604546 
C        C      0.816800000000     0.792500000000     0.663500000000    -0.00604546 
C        C      0.736200000000     0.722700000000     0.654800000000    -0.00604546 
C        C      0.588600000000     0.996100000000     0.721300000000    -0.00604546 
C        C      0.532700000000     0.917300000000     0.716000000000    -0.00604546 
C        C      0.415600000000     0.916200000000     0.745800000000    -0.00604546 
C        C      0.353600000000     0.998500000000     0.779100000000    -0.00604546 
C        C      0.411900000000     0.076500000000     0.785900000000    -0.00604546 
C        C      0.528200000000     0.078000000000     0.757600000000    -0.00604546 
C        C      0.956000000000     0.991100000000     0.561200000000    -0.00604546 
C        C      0.966100000000     0.076300000000     0.557300000000    -0.00604546 
C        C      0.992700000000     0.916800000000     0.505300000000    -0.00604546 
C        C      0.000500000000     0.013300000000     0.934500000000    -0.00604546 
C        C      0.890800000000     0.013000000000     0.969300000000    -0.00604546 
C        C      0.113700000000     0.995000000000     0.964200000000    -0.00604546 
C        C      0.397800000000     0.637400000000     0.263500000000    -0.00604546 
C        C      0.375900000000     0.699200000000     0.329400000000    -0.00604546 
C        C      0.298000000000     0.772800000000     0.338500000000    -0.00604546 
C        C      0.739200000000     0.720100000000     0.219600000000    -0.00604546 
C        C      0.759900000000     0.782000000000     0.285400000000    -0.00604546 
C        C      0.337000000000     0.645000000000     0.206100000000    -0.00604546 
C        C      0.822500000000     0.215100000000     0.212700000000    -0.00604546 
C        C      0.800200000000     0.277500000000     0.278500000000    -0.00604546 
C        C      0.721100000000     0.349900000000     0.287800000000    -0.00604546 
C        C      0.663800000000     0.357200000000     0.229700000000    -0.00604546 
C        C      0.683200000000     0.292500000000     0.163500000000    -0.00604546 
C        C      0.763800000000     0.222700000000     0.154800000000    -0.00604546 
C        C      0.911400000000     0.496100000000     0.221300000000    -0.00604546 
C        C      0.967300000000     0.417300000000     0.216000000000    -0.00604546 
C        C      0.084400000000     0.416200000000     0.245800000000    -0.00604546 
C        C      0.146400000000     0.498500000000     0.279100000000    -0.00604546 
C        C      0.088100000000     0.576500000000     0.285900000000    -0.00604546 
C        C      0.971800000000     0.578000000000     0.257600000000    -0.00604546 
C        C      0.544000000000     0.491100000000     0.061200000000    -0.00604546 
C        C      0.533900000000     0.576300000000     0.057300000000    -0.00604546 
C        C      0.507300000000     0.416800000000     0.005300000000    -0.00604546 
C        C      0.499500000000     0.513300000000     0.434500000000    -0.00604546 
C        C      0.609200000000     0.513000000000     0.469300000000    -0.00604546 
C        C      0.386300000000     0.495000000000     0.464200000000    -0.00604546 
C        C      0.897800000000     0.862600000000     0.236500000000    -0.00604546 
C        C      0.875900000000     0.800800000000     0.170600000000    -0.00604546 
C        C      0.798000000000     0.727200000000     0.161500000000    -0.00604546 
C        C      0.239200000000     0.779900000000     0.280400000000    -0.00604546 
C        C      0.259900000000     0.718000000000     0.214600000000    -0.00604546 
C        C      0.837000000000     0.855000000000     0.293900000000    -0.00604546 
C        C      0.322500000000     0.284900000000     0.287300000000    -0.00604546 
C        C      0.300200000000     0.222500000000     0.221500000000    -0.00604546 
C        C      0.221100000000     0.150100000000     0.212200000000    -0.00604546 
C        C      0.163800000000     0.142800000000     0.270300000000    -0.00604546 
C        C      0.183200000000     0.207500000000     0.336500000000    -0.00604546 
C        C      0.263800000000     0.277300000000     0.345200000000    -0.00604546 
C        C      0.411400000000     0.003900000000     0.278700000000    -0.00604546 
C        C      0.467300000000     0.082700000000     0.284000000000    -0.00604546 
C        C      0.584400000000     0.083800000000     0.254200000000    -0.00604546 
C        C      0.646400000000     0.001500000000     0.220900000000    -0.00604546 
C        C      0.588100000000     0.923500000000     0.214100000000    -0.00604546 
C        C      0.471800000000     0.922000000000     0.242400000000    -0.00604546 
C        C      0.044000000000     0.008900000000     0.438800000000    -0.00604546 
C        C      0.033900000000     0.923700000000     0.442700000000    -0.00604546 
C        C      0.007300000000     0.083200000000     0.494700000000    -0.00604546 
C        C      0.999500000000     0.986700000000     0.065500000000    -0.00604546 
C        C      0.109200000000     0.987000000000     0.030700000000    -0.00604546 
C        C      0.886300000000     0.005000000000     0.035800000000    -0.00604546 
O        O      0.201700000000     0.506200000000     0.810000000000    -0.571615   
O        O      0.531500000000     0.436900000000     0.746200000000    -0.571615   
O        O      0.419000000000     0.517200000000     0.876800000000    -0.571615   
O        O      0.412300000000     0.570200000000     0.762900000000    -0.571615   
O        O      0.335000000000     0.352400000000     0.788100000000    -0.571615   
O        O      0.095400000000     0.853300000000     0.794700000000    -0.571615   
O        O      0.738100000000     0.502900000000     0.695000000000    -0.571615   
O        O      0.500900000000     0.479000000000     0.628300000000    -0.571615   
O        O      0.701700000000     0.993800000000     0.690000000000    -0.571615   
O        O      0.031500000000     0.063100000000     0.753800000000    -0.571615   
O        O      0.919000000000     0.982800000000     0.623200000000    -0.571615   
O        O      0.912300000000     0.929800000000     0.737100000000    -0.571615   
O        O      0.835000000000     0.147600000000     0.711900000000    -0.571615   
O        O      0.595400000000     0.646700000000     0.705300000000    -0.571615   
O        O      0.238100000000     0.997100000000     0.805000000000    -0.571615   
O        O      0.000900000000     0.021000000000     0.871700000000    -0.571615   
O        O      0.798300000000     0.493800000000     0.190000000000    -0.571615   
O        O      0.468500000000     0.563100000000     0.253800000000    -0.571615   
O        O      0.581000000000     0.482800000000     0.123200000000    -0.571615   
O        O      0.587700000000     0.429800000000     0.237100000000    -0.571615   
O        O      0.665000000000     0.647600000000     0.211900000000    -0.571615   
O        O      0.904600000000     0.146700000000     0.205300000000    -0.571615   
O        O      0.261900000000     0.497100000000     0.305000000000    -0.571615   
O        O      0.499100000000     0.521000000000     0.371700000000    -0.571615   
O        O      0.298300000000     0.006200000000     0.310000000000    -0.571615   
O        O      0.968500000000     0.936900000000     0.246200000000    -0.571615   
O        O      0.081000000000     0.017200000000     0.376800000000    -0.571615   
O        O      0.087700000000     0.070200000000     0.262900000000    -0.571615   
O        O      0.165000000000     0.852400000000     0.288100000000    -0.571615   
O        O      0.404600000000     0.353300000000     0.294700000000    -0.571615   
O        O      0.761900000000     0.002900000000     0.195000000000    -0.571615   
O        O      0.999100000000     0.979000000000     0.128300000000    -0.571615   


