data_MATVAF_original

_audit_creation_method RASPA-1.0
_audit_creation_date 2022-1-28
_audit_author_name 'Felipe Lopes de Oliveira <felipe.lopes.oliveira@ibm.com>'

_cell_length_a    12.9938
_cell_length_b    13.0908
_cell_length_c    22.318
_cell_angle_alpha 90
_cell_angle_beta  90
_cell_angle_gamma 102.582
_cell_volume      3705.11

_symmetry_cell_setting          triclinic
_symmetry_space_group_name_Hall 'P 1'
_symmetry_space_group_name_H-M  'P 1'
_symmetry_Int_Tables_number     1

_symmetry_equiv_pos_as_xyz 'x,y,z'

loop_
_atom_site_label
_atom_site_type_symbol
_atom_site_fract_x
_atom_site_fract_y
_atom_site_fract_z
_atom_site_charge
Zn       Zn     0.226960000000     0.129320000000     0.826320000000     0.474818   
Zn       Zn     0.254490000000     0.156030000000     0.956850000000     0.474818   
Zn       Zn     0.773040000000     0.870680000000     0.326320000000     0.474818   
Zn       Zn     0.745510000000     0.843970000000     0.456850000000     0.474818   
H        H      0.115700000000     0.983400000000     0.729100000000     0.0631697  
H        H      0.111900000000     0.973500000000     0.626800000000     0.0631697  
H        H      0.305700000000     0.259400000000     0.619500000000     0.0631697  
H        H      0.308900000000     0.258700000000     0.723900000000     0.0631697  
H        H      0.466700000000     0.115200000000     0.447400000000     0.0631697  
H        H      0.473900000000     0.128600000000     0.341900000000     0.0631697  
H        H      0.978200000000     0.139600000000     0.335500000000     0.0631697  
H        H      0.971400000000     0.130200000000     0.441100000000     0.0631697  
H        H      0.307300000000     0.299500000000     0.166200000000     0.0631697  
H        H      0.317600000000     0.305200000000     0.060700000000     0.0631697  
H        H      0.174700000000     0.005900000000     0.051600000000     0.0631697  
H        H      0.159400000000     0.995700000000     0.157100000000     0.0631697  
H        H      0.238700000000     0.447600000000     0.785700000000     0.0631697  
H        H      0.235900000000     0.624200000000     0.771900000000     0.0631697  
H        H      0.266400000000     0.488900000000     0.964000000000     0.0631697  
H        H      0.231100000000     0.798700000000     0.817300000000     0.0631697  
H        H      0.258300000000     0.836400000000     0.997000000000     0.0631697  
H        H      0.260600000000     0.661900000000     0.008700000000     0.0631697  
H        H      0.899600000000     0.127200000000     0.819000000000     0.0631697  
H        H      0.755500000000     0.153200000000     0.010400000000     0.0631697  
H        H      0.929500000000     0.140200000000     0.999600000000     0.0631697  
H        H      0.729000000000     0.141200000000     0.772200000000     0.0631697  
H        H      0.552400000000     0.152700000000     0.782700000000     0.0631697  
H        H      0.584000000000     0.164000000000     0.963800000000     0.0631697  
H        H      0.884300000000     0.016600000000     0.229100000000     0.0631697  
H        H      0.888100000000     0.026500000000     0.126800000000     0.0631697  
H        H      0.694300000000     0.740600000000     0.119500000000     0.0631697  
H        H      0.691100000000     0.741300000000     0.223900000000     0.0631697  
H        H      0.533300000000     0.884800000000     0.947400000000     0.0631697  
H        H      0.526100000000     0.871400000000     0.841900000000     0.0631697  
H        H      0.021800000000     0.860400000000     0.835500000000     0.0631697  
H        H      0.028600000000     0.869800000000     0.941100000000     0.0631697  
H        H      0.692700000000     0.700500000000     0.666200000000     0.0631697  
H        H      0.682400000000     0.694800000000     0.560700000000     0.0631697  
H        H      0.825300000000     0.994100000000     0.551600000000     0.0631697  
H        H      0.840600000000     0.004300000000     0.657100000000     0.0631697  
H        H      0.761300000000     0.552400000000     0.285700000000     0.0631697  
H        H      0.764100000000     0.375800000000     0.271900000000     0.0631697  
H        H      0.733600000000     0.511100000000     0.464000000000     0.0631697  
H        H      0.768900000000     0.201300000000     0.317300000000     0.0631697  
H        H      0.741700000000     0.163600000000     0.497000000000     0.0631697  
H        H      0.739400000000     0.338100000000     0.508700000000     0.0631697  
H        H      0.100400000000     0.872800000000     0.319000000000     0.0631697  
H        H      0.244500000000     0.846800000000     0.510400000000     0.0631697  
H        H      0.070500000000     0.859800000000     0.499600000000     0.0631697  
H        H      0.271000000000     0.858800000000     0.272200000000     0.0631697  
H        H      0.447600000000     0.847300000000     0.282700000000     0.0631697  
H        H      0.416000000000     0.836000000000     0.463800000000     0.0631697  
C        C      0.155700000000     0.039700000000     0.706460000000     0.0316245  
C        C      0.152900000000     0.033400000000     0.646130000000     0.0316245  
C        C      0.210000000000     0.114700000000     0.613010000000     0.0316245  
C        C      0.267400000000     0.201200000000     0.641400000000     0.0316245  
C        C      0.267400000000     0.200200000000     0.703530000000     0.0316245  
C        C      0.119100000000     0.119800000000     0.518780000000     0.0316245  
C        C      0.125300000000     0.126700000000     0.452730000000     0.0316245  
C        C      0.221800000000     0.127800000000     0.422990000000     0.0316245  
C        C      0.312600000000     0.122400000000     0.454670000000     0.0316245  
C        C      0.310900000000     0.115900000000     0.521290000000     0.0316245  
C        C      0.405700000000     0.120900000000     0.425310000000     0.0316245  
C        C      0.409500000000     0.128000000000     0.362240000000     0.0316245  
C        C      0.321300000000     0.133800000000     0.330000000000     0.0316245  
C        C      0.224000000000     0.132900000000     0.359310000000     0.0316245  
C        C      0.132000000000     0.137800000000     0.328590000000     0.0316245  
C        C      0.039900000000     0.136600000000     0.357700000000     0.0316245  
C        C      0.035800000000     0.131000000000     0.420780000000     0.0316245  
C        C      0.134600000000     0.143800000000     0.261740000000     0.0316245  
C        C      0.324800000000     0.136200000000     0.265100000000     0.0316245  
C        C      0.236200000000     0.146100000000     0.169880000000     0.0316245  
C        C      0.280900000000     0.238500000000     0.143050000000     0.0316245  
C        C      0.287000000000     0.241400000000     0.080310000000     0.0316245  
C        C      0.202900000000     0.066000000000     0.075140000000     0.0316245  
C        C      0.193700000000     0.058800000000     0.137980000000     0.0316245  
C        C      0.254500000000     0.340100000000     0.883700000000     0.0316245  
C        C      0.253700000000     0.454900000000     0.877190000000     0.0316245  
C        C      0.243500000000     0.493100000000     0.819300000000     0.0316245  
C        C      0.240300000000     0.597300000000     0.811100000000     0.0316245  
C        C      0.243900000000     0.664200000000     0.862300000000     0.0316245  
C        C      0.254200000000     0.624000000000     0.920100000000     0.0316245  
C        C      0.259100000000     0.517100000000     0.925420000000     0.0316245  
C        C      0.237900000000     0.770900000000     0.856040000000     0.0316245  
C        C      0.241700000000     0.833000000000     0.904610000000     0.0316245  
C        C      0.253100000000     0.792100000000     0.962900000000     0.0316245  
C        C      0.256600000000     0.689400000000     0.969590000000     0.0316245  
C        C      0.235500000000     0.945100000000     0.897400000000     0.0316245  
C        C      0.042400000000     0.125800000000     0.901450000000     0.0316245  
C        C      0.928500000000     0.131300000000     0.907860000000     0.0316245  
C        C      0.869800000000     0.132600000000     0.857410000000     0.0316245  
C        C      0.763500000000     0.142000000000     0.862960000000     0.0316245  
C        C      0.721800000000     0.148700000000     0.921020000000     0.0316245  
C        C      0.784100000000     0.148100000000     0.971580000000     0.0316245  
C        C      0.886500000000     0.140000000000     0.965200000000     0.0316245  
C        C      0.699800000000     0.144500000000     0.810980000000     0.0316245  
C        C      0.595100000000     0.151700000000     0.817160000000     0.0316245  
C        C      0.553000000000     0.157500000000     0.874630000000     0.0316245  
C        C      0.613900000000     0.157700000000     0.925460000000     0.0316245  
C        C      0.439100000000     0.162800000000     0.882020000000     0.0316245  
C        C      0.844300000000     0.960300000000     0.206460000000     0.0316245  
C        C      0.847100000000     0.966600000000     0.146130000000     0.0316245  
C        C      0.790000000000     0.885300000000     0.113010000000     0.0316245  
C        C      0.732600000000     0.798800000000     0.141400000000     0.0316245  
C        C      0.732600000000     0.799800000000     0.203530000000     0.0316245  
C        C      0.880900000000     0.880200000000     0.018780000000     0.0316245  
C        C      0.874700000000     0.873300000000     0.952730000000     0.0316245  
C        C      0.778200000000     0.872200000000     0.922990000000     0.0316245  
C        C      0.687400000000     0.877600000000     0.954670000000     0.0316245  
C        C      0.689100000000     0.884100000000     0.021290000000     0.0316245  
C        C      0.594300000000     0.879100000000     0.925310000000     0.0316245  
C        C      0.590500000000     0.872000000000     0.862240000000     0.0316245  
C        C      0.678700000000     0.866200000000     0.830000000000     0.0316245  
C        C      0.776000000000     0.867100000000     0.859310000000     0.0316245  
C        C      0.868000000000     0.862200000000     0.828590000000     0.0316245  
C        C      0.960100000000     0.863400000000     0.857700000000     0.0316245  
C        C      0.964200000000     0.869000000000     0.920780000000     0.0316245  
C        C      0.865400000000     0.856200000000     0.761740000000     0.0316245  
C        C      0.675200000000     0.863800000000     0.765100000000     0.0316245  
C        C      0.763800000000     0.853900000000     0.669880000000     0.0316245  
C        C      0.719100000000     0.761500000000     0.643050000000     0.0316245  
C        C      0.713000000000     0.758600000000     0.580310000000     0.0316245  
C        C      0.797100000000     0.934000000000     0.575140000000     0.0316245  
C        C      0.806300000000     0.941200000000     0.637980000000     0.0316245  
C        C      0.745500000000     0.659900000000     0.383700000000     0.0316245  
C        C      0.746300000000     0.545100000000     0.377190000000     0.0316245  
C        C      0.756500000000     0.506900000000     0.319300000000     0.0316245  
C        C      0.759700000000     0.402700000000     0.311100000000     0.0316245  
C        C      0.756100000000     0.335800000000     0.362300000000     0.0316245  
C        C      0.745800000000     0.376000000000     0.420100000000     0.0316245  
C        C      0.740900000000     0.482900000000     0.425420000000     0.0316245  
C        C      0.762100000000     0.229100000000     0.356040000000     0.0316245  
C        C      0.758300000000     0.167000000000     0.404610000000     0.0316245  
C        C      0.746900000000     0.207900000000     0.462900000000     0.0316245  
C        C      0.743400000000     0.310600000000     0.469590000000     0.0316245  
C        C      0.764500000000     0.054900000000     0.397400000000     0.0316245  
C        C      0.957600000000     0.874200000000     0.401450000000     0.0316245  
C        C      0.071500000000     0.868700000000     0.407860000000     0.0316245  
C        C      0.130200000000     0.867400000000     0.357410000000     0.0316245  
C        C      0.236500000000     0.858000000000     0.362960000000     0.0316245  
C        C      0.278200000000     0.851300000000     0.421020000000     0.0316245  
C        C      0.215900000000     0.851900000000     0.471580000000     0.0316245  
C        C      0.113500000000     0.860000000000     0.465200000000     0.0316245  
C        C      0.300200000000     0.855500000000     0.310980000000     0.0316245  
C        C      0.404900000000     0.848300000000     0.317160000000     0.0316245  
C        C      0.447000000000     0.842500000000     0.374630000000     0.0316245  
C        C      0.386100000000     0.842300000000     0.425460000000     0.0316245  
C        C      0.560900000000     0.837200000000     0.382020000000     0.0316245  
N        N      0.213200000000     0.123000000000     0.735870000000    -0.18661    
N        N      0.213000000000     0.110200000000     0.547830000000    -0.18661    
N        N      0.230800000000     0.142700000000     0.235140000000    -0.18661    
N        N      0.249700000000     0.154400000000     0.047500000000    -0.18661    
N        N      0.786800000000     0.877000000000     0.235870000000    -0.18661    
N        N      0.787000000000     0.889800000000     0.047830000000    -0.18661    
N        N      0.769200000000     0.857300000000     0.735140000000    -0.18661    
N        N      0.750300000000     0.845600000000     0.547500000000    -0.18661    
O        O      0.039700000000     0.119400000000     0.546660000000    -0.26977    
O        O      0.386200000000     0.109700000000     0.550220000000    -0.26977    
O        O      0.057400000000     0.148500000000     0.231510000000    -0.26977    
O        O      0.404100000000     0.136100000000     0.235450000000    -0.26977    
O        O      0.407600000000     0.173100000000     0.933030000000    -0.26977    
O        O      0.384890000000     0.152300000000     0.834630000000    -0.26977    
O        O      0.075000000000     0.113800000000     0.849450000000    -0.26977    
O        O      0.095860000000     0.132300000000     0.949280000000    -0.26977    
O        O      0.242100000000     0.997900000000     0.944360000000    -0.26977    
O        O      0.221400000000     0.976900000000     0.845790000000    -0.26977    
O        O      0.262300000000     0.306900000000     0.935900000000    -0.26977    
O        O      0.243300000000     0.287400000000     0.837690000000    -0.26977    
O        O      0.960300000000     0.880600000000     0.046660000000    -0.26977    
O        O      0.613800000000     0.890300000000     0.050220000000    -0.26977    
O        O      0.942600000000     0.851500000000     0.731510000000    -0.26977    
O        O      0.595900000000     0.863900000000     0.735450000000    -0.26977    
O        O      0.592400000000     0.826900000000     0.433030000000    -0.26977    
O        O      0.615110000000     0.847700000000     0.334630000000    -0.26977    
O        O      0.925000000000     0.886200000000     0.349450000000    -0.26977    
O        O      0.904140000000     0.867700000000     0.449280000000    -0.26977    
O        O      0.757900000000     0.002100000000     0.444360000000    -0.26977    
O        O      0.778600000000     0.023100000000     0.345790000000    -0.26977    
O        O      0.737700000000     0.693100000000     0.435900000000    -0.26977    
O        O      0.756700000000     0.712600000000     0.337690000000    -0.26977    


