data_MATVIN_original

_audit_creation_method RASPA-1.0
_audit_creation_date 2022-1-30
_audit_author_name 'Felipe Lopes de Oliveira <felipe.lopes.oliveira@ibm.com>'

_cell_length_a    8.8737
_cell_length_b    8.8737
_cell_length_c    14.0404
_cell_angle_alpha 78.3882
_cell_angle_beta  78.3882
_cell_angle_gamma 81.4905
_cell_volume      1054.11

_symmetry_cell_setting          triclinic
_symmetry_space_group_name_Hall 'P 1'
_symmetry_space_group_name_H-M  'P 1'
_symmetry_Int_Tables_number     1

_symmetry_equiv_pos_as_xyz 'x,y,z'

loop_
_atom_site_label
_atom_site_type_symbol
_atom_site_fract_x
_atom_site_fract_y
_atom_site_fract_z
_atom_site_charge
Zn       Zn     0.761540000000     0.761540000000     0.582640000000     0.473688   
Zn       Zn     0.731080000000     0.731080000000     0.799250000000     0.473688   
Zn       Zn     0.238460000000     0.238460000000     0.417360000000     0.473688   
Zn       Zn     0.268920000000     0.268920000000     0.200750000000     0.473688   
H        H      0.221400000000     0.734400000000     0.793200000000     0.0698932  
H        H      0.268300000000     0.768100000000     0.589800000000     0.0698932  
H        H      0.925500000000     0.586700000000     0.424600000000     0.0698932  
H        H      0.920000000000     0.574400000000     0.261700000000     0.0698932  
H        H      0.899100000000     0.568100000000     0.122600000000     0.0698932  
H        H      0.882800000000     0.568000000000     0.961100000000     0.0698932  
H        H      0.734400000000     0.221400000000     0.793200000000     0.0698932  
H        H      0.768100000000     0.268300000000     0.589800000000     0.0698932  
H        H      0.586700000000     0.925500000000     0.424600000000     0.0698932  
H        H      0.574400000000     0.920000000000     0.261700000000     0.0698932  
H        H      0.568100000000     0.899100000000     0.122600000000     0.0698932  
H        H      0.568000000000     0.882800000000     0.961100000000     0.0698932  
H        H      0.265600000000     0.778600000000     0.206800000000     0.0698932  
H        H      0.231900000000     0.731700000000     0.410200000000     0.0698932  
H        H      0.413300000000     0.074500000000     0.575400000000     0.0698932  
H        H      0.425600000000     0.080000000000     0.738300000000     0.0698932  
H        H      0.431900000000     0.100900000000     0.877400000000     0.0698932  
H        H      0.432000000000     0.117200000000     0.038900000000     0.0698932  
H        H      0.778600000000     0.265600000000     0.206800000000     0.0698932  
H        H      0.731700000000     0.231900000000     0.410200000000     0.0698932  
H        H      0.074500000000     0.413300000000     0.575400000000     0.0698932  
H        H      0.080000000000     0.425600000000     0.738300000000     0.0698932  
H        H      0.100900000000     0.431900000000     0.877400000000     0.0698932  
H        H      0.117200000000     0.432000000000     0.038900000000     0.0698932  
C        C      0.449600000000     0.756200000000     0.716400000000     0.0532084  
C        C      0.280600000000     0.746400000000     0.728300000000     0.0532084  
C        C      0.209400000000     0.753400000000     0.654700000000     0.0532084  
C        C      0.040600000000     0.739800000000     0.666300000000     0.0532084  
C        C      0.853300000000     0.656300000000     0.391100000000     0.0532084  
C        C      0.849200000000     0.647000000000     0.294300000000     0.0532084  
C        C      0.824300000000     0.639500000000     0.092300000000     0.0532084  
C        C      0.812800000000     0.641200000000     0.993700000000     0.0532084  
C        C      0.756200000000     0.449600000000     0.716400000000     0.0532084  
C        C      0.746400000000     0.280600000000     0.728300000000     0.0532084  
C        C      0.753400000000     0.209400000000     0.654700000000     0.0532084  
C        C      0.739800000000     0.040600000000     0.666300000000     0.0532084  
C        C      0.656300000000     0.853300000000     0.391100000000     0.0532084  
C        C      0.647000000000     0.849200000000     0.294300000000     0.0532084  
C        C      0.639500000000     0.824300000000     0.092300000000     0.0532084  
C        C      0.641200000000     0.812800000000     0.993700000000     0.0532084  
C        C      0.743000000000     0.743000000000     0.246000000000     0.0532084  
C        C      0.734300000000     0.734300000000     0.141100000000     0.0532084  
C        C      0.243800000000     0.550400000000     0.283600000000     0.0532084  
C        C      0.253600000000     0.719400000000     0.271700000000     0.0532084  
C        C      0.246600000000     0.790600000000     0.345300000000     0.0532084  
C        C      0.260200000000     0.959400000000     0.333700000000     0.0532084  
C        C      0.343700000000     0.146700000000     0.608900000000     0.0532084  
C        C      0.353000000000     0.150800000000     0.705700000000     0.0532084  
C        C      0.360500000000     0.175700000000     0.907700000000     0.0532084  
C        C      0.358800000000     0.187200000000     0.006300000000     0.0532084  
C        C      0.550400000000     0.243800000000     0.283600000000     0.0532084  
C        C      0.719400000000     0.253600000000     0.271700000000     0.0532084  
C        C      0.790600000000     0.246600000000     0.345300000000     0.0532084  
C        C      0.959400000000     0.260200000000     0.333700000000     0.0532084  
C        C      0.146700000000     0.343700000000     0.608900000000     0.0532084  
C        C      0.150800000000     0.353000000000     0.705700000000     0.0532084  
C        C      0.175700000000     0.360500000000     0.907700000000     0.0532084  
C        C      0.187200000000     0.358800000000     0.006300000000     0.0532084  
C        C      0.257000000000     0.257000000000     0.754000000000     0.0532084  
C        C      0.265700000000     0.265700000000     0.858900000000     0.0532084  
N        N      0.759400000000     0.759400000000     0.438800000000    -0.184764   
N        N      0.724500000000     0.724500000000     0.945400000000    -0.184764   
N        N      0.240600000000     0.240600000000     0.561200000000    -0.184764   
N        N      0.275500000000     0.275500000000     0.054600000000    -0.184764   
O        O      0.527900000000     0.772100000000     0.632200000000    -0.29679    
O        O      0.501900000000     0.744300000000     0.795800000000    -0.29679    
O        O      0.964600000000     0.721800000000     0.752600000000    -0.29679    
O        O      0.990000000000     0.747000000000     0.588400000000    -0.29679    
O        O      0.772100000000     0.527900000000     0.632200000000    -0.29679    
O        O      0.744300000000     0.501900000000     0.795800000000    -0.29679    
O        O      0.721800000000     0.964600000000     0.752600000000    -0.29679    
O        O      0.747000000000     0.990000000000     0.588400000000    -0.29679    
O        O      0.227900000000     0.472100000000     0.367800000000    -0.29679    
O        O      0.255700000000     0.498100000000     0.204200000000    -0.29679    
O        O      0.278200000000     0.035400000000     0.247400000000    -0.29679    
O        O      0.253000000000     0.010000000000     0.411600000000    -0.29679    
O        O      0.472100000000     0.227900000000     0.367800000000    -0.29679    
O        O      0.498100000000     0.255700000000     0.204200000000    -0.29679    
O        O      0.035400000000     0.278200000000     0.247400000000    -0.29679    
O        O      0.010000000000     0.253000000000     0.411600000000    -0.29679    


