data_MAZSUD_original

_audit_creation_method RASPA-1.0
_audit_creation_date 2022-1-30
_audit_author_name 'Felipe Lopes de Oliveira <felipe.lopes.oliveira@ibm.com>'

_cell_length_a    9.1789
_cell_length_b    10.9267
_cell_length_c    11.371
_cell_angle_alpha 117.844
_cell_angle_beta  100.861
_cell_angle_gamma 99.344
_cell_volume      948.298

_symmetry_cell_setting          triclinic
_symmetry_space_group_name_Hall 'P 1'
_symmetry_space_group_name_H-M  'P 1'
_symmetry_Int_Tables_number     1

_symmetry_equiv_pos_as_xyz 'x,y,z'

loop_
_atom_site_label
_atom_site_type_symbol
_atom_site_fract_x
_atom_site_fract_y
_atom_site_fract_z
_atom_site_charge
Zn       Zn     0.190950000000     0.623550000000     0.122110000000     0.443137   
Zn       Zn     0.809050000000     0.376450000000     0.877890000000     0.443137   
Zn       Zn     0.500000000000     0.500000000000     0.000000000000     0.443137   
H        H      0.625300000000     0.827800000000     0.976700000000     0.052672   
H        H      0.294200000000     0.009700000000     0.088500000000     0.052672   
H        H      0.694200000000     0.390800000000     0.507100000000     0.052672   
H        H      0.386400000000     0.573300000000     0.676500000000     0.052672   
H        H      0.249600000000     0.231000000000     0.703800000000     0.052672   
H        H      0.967700000000     0.177600000000     0.654000000000     0.052672   
H        H      0.374700000000     0.172200000000     0.023300000000     0.052672   
H        H      0.705800000000     0.990300000000     0.911500000000     0.052672   
H        H      0.305800000000     0.609200000000     0.492900000000     0.052672   
H        H      0.613600000000     0.426700000000     0.323500000000     0.052672   
H        H      0.750400000000     0.769000000000     0.296200000000     0.052672   
H        H      0.032300000000     0.822400000000     0.346000000000     0.052672   
C        C      0.448400000000     0.900500000000     0.037400000000     0.0501106  
C        C      0.574000000000     0.897000000000     0.985700000000     0.0501106  
C        C      0.377200000000     0.005000000000     0.052100000000     0.0501106  
C        C      0.391900000000     0.790100000000     0.073100000000     0.0501106  
C        C      0.546700000000     0.474200000000     0.607200000000     0.0501106  
C        C      0.615300000000     0.434000000000     0.504200000000     0.0501106  
C        C      0.431500000000     0.543000000000     0.604800000000     0.0501106  
C        C      0.598100000000     0.455100000000     0.730100000000     0.0501106  
C        C      0.197600000000     0.283800000000     0.763300000000     0.0501106  
C        C      0.041600000000     0.253900000000     0.734700000000     0.0501106  
C        C      0.551600000000     0.099500000000     0.962600000000     0.0501106  
C        C      0.426000000000     0.103000000000     0.014300000000     0.0501106  
C        C      0.622800000000     0.995000000000     0.947900000000     0.0501106  
C        C      0.608100000000     0.209900000000     0.926900000000     0.0501106  
C        C      0.453300000000     0.525800000000     0.392800000000     0.0501106  
C        C      0.384700000000     0.566000000000     0.495800000000     0.0501106  
C        C      0.568500000000     0.457000000000     0.395200000000     0.0501106  
C        C      0.401900000000     0.544900000000     0.269900000000     0.0501106  
C        C      0.802400000000     0.716200000000     0.236700000000     0.0501106  
C        C      0.958400000000     0.746100000000     0.265300000000     0.0501106  
N        N      0.264300000000     0.399300000000     0.888500000000    -0.0967894  
N        N      0.151400000000     0.443200000000     0.938200000000    -0.0967894  
N        N      0.015100000000     0.356100000000     0.845700000000    -0.0967894  
N        N      0.735700000000     0.600700000000     0.111500000000    -0.0967894  
N        N      0.848600000000     0.556800000000     0.061800000000    -0.0967894  
N        N      0.984900000000     0.643900000000     0.154300000000    -0.0967894  
O        O      0.270100000000     0.790800000000     0.105600000000    -0.297869   
O        O      0.466900000000     0.705100000000     0.072000000000    -0.297869   
O        O      0.536200000000     0.501800000000     0.823800000000    -0.297869   
O        O      0.702500000000     0.391000000000     0.724900000000    -0.297869   
O        O      0.729900000000     0.209200000000     0.894400000000    -0.297869   
O        O      0.533100000000     0.294900000000     0.928000000000    -0.297869   
O        O      0.463800000000     0.498200000000     0.176200000000    -0.297869   
O        O      0.297500000000     0.609000000000     0.275100000000    -0.297869   


