data_MECLEL_original

_audit_creation_method RASPA-1.0
_audit_creation_date 2022-1-30
_audit_author_name 'Felipe Lopes de Oliveira <felipe.lopes.oliveira@ibm.com>'

_cell_length_a    9.1913
_cell_length_b    9.1913
_cell_length_c    18.3249
_cell_angle_alpha 89.7487
_cell_angle_beta  89.7487
_cell_angle_gamma 78.2522
_cell_volume      1515.64

_symmetry_cell_setting          triclinic
_symmetry_space_group_name_Hall 'P 1'
_symmetry_space_group_name_H-M  'P 1'
_symmetry_Int_Tables_number     1

_symmetry_equiv_pos_as_xyz 'x,y,z'

loop_
_atom_site_label
_atom_site_type_symbol
_atom_site_fract_x
_atom_site_fract_y
_atom_site_fract_z
_atom_site_charge
Al       Al     0.132520000000     0.407780000000     0.531000000000     6.58159    
Al       Al     0.595260000000     0.151840000000     0.566620000000     6.58159    
Al       Al     0.454790000000     0.376870000000     0.818350000000     6.58159    
Al       Al     0.592220000000     0.867480000000     0.969000000000     6.58159    
Al       Al     0.848160000000     0.404740000000     0.933380000000     6.58159    
Al       Al     0.623130000000     0.545210000000     0.681650000000     6.58159    
Al       Al     0.867480000000     0.592220000000     0.469000000000     6.58159    
Al       Al     0.404740000000     0.848160000000     0.433380000000     6.58159    
Al       Al     0.545210000000     0.623130000000     0.181650000000     6.58159    
Al       Al     0.407780000000     0.132520000000     0.031000000000     6.58159    
Al       Al     0.151840000000     0.595260000000     0.066620000000     6.58159    
Al       Al     0.376870000000     0.454790000000     0.318350000000     6.58159    
P        P      0.376330000000     0.191410000000     0.440110000000     1.5522     
P        P      0.169950000000     0.647450000000     0.424150000000     1.5522     
P        P      0.372740000000     0.385140000000     0.656680000000     1.5522     
P        P      0.808590000000     0.623670000000     0.059890000000     1.5522     
P        P      0.352550000000     0.830050000000     0.075850000000     1.5522     
P        P      0.614860000000     0.627260000000     0.843320000000     1.5522     
P        P      0.623670000000     0.808590000000     0.559890000000     1.5522     
P        P      0.830050000000     0.352550000000     0.575850000000     1.5522     
P        P      0.627260000000     0.614860000000     0.343320000000     1.5522     
P        P      0.191410000000     0.376330000000     0.940110000000     1.5522     
P        P      0.647450000000     0.169950000000     0.924150000000     1.5522     
P        P      0.385140000000     0.372740000000     0.156680000000     1.5522     
O        O      0.252700000000     0.238500000000     0.495460000000    -1.78073    
O        O      0.467500000000     0.236100000000     0.631200000000    -1.78073    
O        O      0.223600000000     0.414800000000     0.619120000000    -1.78073    
O        O      0.528200000000     0.175000000000     0.477960000000    -1.78073    
O        O      0.341500000000     0.371100000000     0.738800000000    -1.78073    
O        O      0.364600000000     0.036400000000     0.410800000000    -1.78073    
O        O      0.233500000000     0.542100000000     0.485800000000    -1.78073    
O        O      0.238900000000     0.788100000000     0.426800000000    -1.78073    
O        O      0.998500000000     0.297300000000     0.571780000000    -1.78073    
O        O      0.209900000000     0.572300000000     0.349540000000    -1.78073    
O        O      0.368800000000     0.292600000000     0.374660000000    -1.78073    
O        O      0.455200000000     0.512000000000     0.643200000000    -1.78073    
O        O      0.761500000000     0.747300000000     0.004540000000    -1.78073    
O        O      0.763900000000     0.532500000000     0.868800000000    -1.78073    
O        O      0.585200000000     0.776400000000     0.880880000000    -1.78073    
O        O      0.825000000000     0.471800000000     0.022040000000    -1.78073    
O        O      0.628900000000     0.658500000000     0.761200000000    -1.78073    
O        O      0.963600000000     0.635400000000     0.089200000000    -1.78073    
O        O      0.457900000000     0.766500000000     0.014200000000    -1.78073    
O        O      0.211900000000     0.761100000000     0.073200000000    -1.78073    
O        O      0.702700000000     0.001500000000     0.928220000000    -1.78073    
O        O      0.427700000000     0.790100000000     0.150460000000    -1.78073    
O        O      0.707400000000     0.631200000000     0.125340000000    -1.78073    
O        O      0.488000000000     0.544800000000     0.856800000000    -1.78073    
O        O      0.747300000000     0.761500000000     0.504540000000    -1.78073    
O        O      0.532500000000     0.763900000000     0.368800000000    -1.78073    
O        O      0.776400000000     0.585200000000     0.380880000000    -1.78073    
O        O      0.471800000000     0.825000000000     0.522040000000    -1.78073    
O        O      0.658500000000     0.628900000000     0.261200000000    -1.78073    
O        O      0.635400000000     0.963600000000     0.589200000000    -1.78073    
O        O      0.766500000000     0.457900000000     0.514200000000    -1.78073    
O        O      0.761100000000     0.211900000000     0.573200000000    -1.78073    
O        O      0.001500000000     0.702700000000     0.428220000000    -1.78073    
O        O      0.790100000000     0.427700000000     0.650460000000    -1.78073    
O        O      0.631200000000     0.707400000000     0.625340000000    -1.78073    
O        O      0.544800000000     0.488000000000     0.356800000000    -1.78073    
O        O      0.238500000000     0.252700000000     0.995460000000    -1.78073    
O        O      0.236100000000     0.467500000000     0.131200000000    -1.78073    
O        O      0.414800000000     0.223600000000     0.119120000000    -1.78073    
O        O      0.175000000000     0.528200000000     0.977960000000    -1.78073    
O        O      0.371100000000     0.341500000000     0.238800000000    -1.78073    
O        O      0.036400000000     0.364600000000     0.910800000000    -1.78073    
O        O      0.542100000000     0.233500000000     0.985800000000    -1.78073    
O        O      0.788100000000     0.238900000000     0.926800000000    -1.78073    
O        O      0.297300000000     0.998500000000     0.071780000000    -1.78073    
O        O      0.572300000000     0.209900000000     0.849540000000    -1.78073    
O        O      0.292600000000     0.368800000000     0.874660000000    -1.78073    
O        O      0.512000000000     0.455200000000     0.143200000000    -1.78073    
F        F      0.986430000000     0.576230000000     0.553870000000    -2.02175    
F        F      0.423770000000     0.013570000000     0.946130000000    -2.02175    
F        F      0.013570000000     0.423770000000     0.446130000000    -2.02175    
F        F      0.576230000000     0.986430000000     0.053870000000    -2.02175    
F        F      0.609300000000     0.390700000000     0.750000000000    -2.02175    
F        F      0.390700000000     0.609300000000     0.250000000000    -2.02175    


