data_MECWEX_original

_audit_creation_method RASPA-1.0
_audit_creation_date 2022-1-29
_audit_author_name 'Felipe Lopes de Oliveira <felipe.lopes.oliveira@ibm.com>'

_cell_length_a    14.7328
_cell_length_b    14.7328
_cell_length_c    14.7328
_cell_angle_alpha 109.471
_cell_angle_beta  109.471
_cell_angle_gamma 109.471
_cell_volume      2461.71

_symmetry_cell_setting          triclinic
_symmetry_space_group_name_Hall 'P 1'
_symmetry_space_group_name_H-M  'P 1'
_symmetry_Int_Tables_number     1

_symmetry_equiv_pos_as_xyz 'x,y,z'

loop_
_atom_site_label
_atom_site_type_symbol
_atom_site_fract_x
_atom_site_fract_y
_atom_site_fract_z
_atom_site_charge
Zn       Zn     0.750000000000     0.250000000000     0.500000000000     0.335313   
Zn       Zn     0.250000000000     0.750000000000     0.500000000000     0.335313   
Zn       Zn     0.500000000000     0.750000000000     0.250000000000     0.335313   
Zn       Zn     0.500000000000     0.250000000000     0.750000000000     0.335313   
Zn       Zn     0.250000000000     0.500000000000     0.750000000000     0.335313   
Zn       Zn     0.750000000000     0.500000000000     0.250000000000     0.335313   
H        H      0.897020000000     0.426890000000     0.779380000000     0.0462247  
H        H      0.647510000000     0.117640000000     0.220620000000     0.0462247  
H        H      0.352490000000     0.573110000000     0.470130000000     0.0462247  
H        H      0.102980000000     0.882360000000     0.529870000000     0.0462247  
H        H      0.779380000000     0.897020000000     0.426890000000     0.0462247  
H        H      0.220620000000     0.647510000000     0.117640000000     0.0462247  
H        H      0.470130000000     0.352490000000     0.573110000000     0.0462247  
H        H      0.529870000000     0.102980000000     0.882360000000     0.0462247  
H        H      0.426890000000     0.779380000000     0.897020000000     0.0462247  
H        H      0.117640000000     0.220620000000     0.647510000000     0.0462247  
H        H      0.573110000000     0.470130000000     0.352490000000     0.0462247  
H        H      0.882360000000     0.529870000000     0.102980000000     0.0462247  
H        H      0.426890000000     0.897020000000     0.779380000000     0.0462247  
H        H      0.117640000000     0.647510000000     0.220620000000     0.0462247  
H        H      0.573110000000     0.352490000000     0.470130000000     0.0462247  
H        H      0.882360000000     0.102980000000     0.529870000000     0.0462247  
H        H      0.897020000000     0.779380000000     0.426890000000     0.0462247  
H        H      0.647510000000     0.220620000000     0.117640000000     0.0462247  
H        H      0.352490000000     0.470130000000     0.573110000000     0.0462247  
H        H      0.102980000000     0.529870000000     0.882360000000     0.0462247  
H        H      0.779380000000     0.426890000000     0.897020000000     0.0462247  
H        H      0.220620000000     0.117640000000     0.647510000000     0.0462247  
H        H      0.470130000000     0.573110000000     0.352490000000     0.0462247  
H        H      0.529870000000     0.882360000000     0.102980000000     0.0462247  
H        H      0.557240000000     0.471620000000     0.801080000000     0.0462247  
H        H      0.518320000000     0.539010000000     0.901420000000     0.0462247  
H        H      0.477430000000     0.542360000000     0.769110000000     0.0462247  
H        H      0.923980000000     0.232260000000     0.450270000000     0.0462247  
H        H      0.078670000000     0.313110000000     0.527030000000     0.0462247  
H        H      0.997360000000     0.373250000000     0.469710000000     0.0462247  
H        H      0.903060000000     0.523790000000     0.534010000000     0.0462247  
H        H      0.776380000000     0.475040000000     0.546800000000     0.0462247  
H        H      0.792170000000     0.554150000000     0.472170000000     0.0462247  
H        H      0.246380000000     0.775180000000     0.732970000000     0.0462247  
H        H      0.173620000000     0.646980000000     0.736290000000     0.0462247  
H        H      0.108390000000     0.659210000000     0.612120000000     0.0462247  
H        H      0.979310000000     0.460990000000     0.362400000000     0.0462247  
H        H      0.085620000000     0.528380000000     0.329460000000     0.0462247  
H        H      0.935070000000     0.457640000000     0.226760000000     0.0462247  
H        H      0.514470000000     0.044670000000     0.269310000000     0.0462247  
H        H      0.494880000000     0.044670000000     0.387780000000     0.0462247  
H        H      0.437660000000     0.910650000000     0.261530000000     0.0462247  
H        H      0.548110000000     0.778800000000     0.474420000000     0.0462247  
H        H      0.472480000000     0.789470000000     0.553080000000     0.0462247  
H        H      0.532400000000     0.903340000000     0.525490000000     0.0462247  
H        H      0.683010000000     0.210530000000     0.763610000000     0.0462247  
H        H      0.769310000000     0.221200000000     0.695620000000     0.0462247  
H        H      0.629050000000     0.096660000000     0.622150000000     0.0462247  
H        H      0.387780000000     0.044670000000     0.494880000000     0.0462247  
H        H      0.269310000000     0.044670000000     0.514470000000     0.0462247  
H        H      0.261530000000     0.910650000000     0.437660000000     0.0462247  
H        H      0.301340000000     0.524960000000     0.071760000000     0.0462247  
H        H      0.379270000000     0.476210000000     0.010220000000     0.0462247  
H        H      0.238020000000     0.445850000000     0.918020000000     0.0462247  
H        H      0.765560000000     0.686890000000     0.213920000000     0.0462247  
H        H      0.691720000000     0.767740000000     0.218010000000     0.0462247  
H        H      0.624100000000     0.626750000000     0.096450000000     0.0462247  
H        H      0.526630000000     0.353020000000     0.089300000000     0.0462247  
H        H      0.471200000000     0.224820000000     0.957790000000     0.0462247  
H        H      0.449180000000     0.340790000000     0.952910000000     0.0462247  
C        C      0.944400000000     0.415000000000     0.733200000000    -0.0118153  
C        C      0.681800000000     0.211200000000     0.266800000000    -0.0118153  
C        C      0.318200000000     0.585000000000     0.529400000000    -0.0118153  
C        C      0.055600000000     0.788800000000     0.470600000000    -0.0118153  
C        C      0.733200000000     0.944400000000     0.415000000000    -0.0118153  
C        C      0.266800000000     0.681800000000     0.211200000000    -0.0118153  
C        C      0.529400000000     0.318200000000     0.585000000000    -0.0118153  
C        C      0.470600000000     0.055600000000     0.788800000000    -0.0118153  
C        C      0.415000000000     0.733200000000     0.944400000000    -0.0118153  
C        C      0.211200000000     0.266800000000     0.681800000000    -0.0118153  
C        C      0.585000000000     0.529400000000     0.318200000000    -0.0118153  
C        C      0.788800000000     0.470600000000     0.055600000000    -0.0118153  
C        C      0.415000000000     0.944400000000     0.733200000000    -0.0118153  
C        C      0.211200000000     0.681800000000     0.266800000000    -0.0118153  
C        C      0.585000000000     0.318200000000     0.529400000000    -0.0118153  
C        C      0.788800000000     0.055600000000     0.470600000000    -0.0118153  
C        C      0.944400000000     0.733200000000     0.415000000000    -0.0118153  
C        C      0.681800000000     0.266800000000     0.211200000000    -0.0118153  
C        C      0.318200000000     0.529400000000     0.585000000000    -0.0118153  
C        C      0.055600000000     0.470600000000     0.788800000000    -0.0118153  
C        C      0.733200000000     0.415000000000     0.944400000000    -0.0118153  
C        C      0.266800000000     0.211200000000     0.681800000000    -0.0118153  
C        C      0.529400000000     0.585000000000     0.318200000000    -0.0118153  
C        C      0.470600000000     0.788800000000     0.055600000000    -0.0118153  
C        C      0.000000000000     0.368750000000     0.614650000000    -0.0118153  
C        C      0.754100000000     0.385350000000     0.385350000000    -0.0118153  
C        C      0.245900000000     0.631250000000     0.631250000000    -0.0118153  
C        C      0.000000000000     0.614650000000     0.368750000000    -0.0118153  
C        C      0.614650000000     0.000000000000     0.368750000000    -0.0118153  
C        C      0.385350000000     0.754100000000     0.385350000000    -0.0118153  
C        C      0.631250000000     0.245900000000     0.631250000000    -0.0118153  
C        C      0.368750000000     0.000000000000     0.614650000000    -0.0118153  
C        C      0.368750000000     0.614650000000     0.000000000000    -0.0118153  
C        C      0.385350000000     0.385350000000     0.754100000000    -0.0118153  
C        C      0.631250000000     0.631250000000     0.245900000000    -0.0118153  
C        C      0.614650000000     0.368750000000     0.000000000000    -0.0118153  
C        C      0.000000000000     0.319000000000     0.509400000000    -0.0118153  
C        C      0.809600000000     0.490600000000     0.490600000000    -0.0118153  
C        C      0.190400000000     0.681000000000     0.681000000000    -0.0118153  
C        C      0.000000000000     0.509400000000     0.319000000000    -0.0118153  
C        C      0.509400000000     0.000000000000     0.319000000000    -0.0118153  
C        C      0.490600000000     0.809600000000     0.490600000000    -0.0118153  
C        C      0.681000000000     0.190400000000     0.681000000000    -0.0118153  
C        C      0.319000000000     0.000000000000     0.509400000000    -0.0118153  
C        C      0.319000000000     0.509400000000     0.000000000000    -0.0118153  
C        C      0.490600000000     0.490600000000     0.809600000000    -0.0118153  
C        C      0.681000000000     0.681000000000     0.190400000000    -0.0118153  
C        C      0.509400000000     0.319000000000     0.000000000000    -0.0118153  
N        N      0.907170000000     0.348900000000     0.621330000000    -0.175759   
N        N      0.727570000000     0.285840000000     0.378670000000    -0.175759   
N        N      0.272430000000     0.651100000000     0.558270000000    -0.175759   
N        N      0.092830000000     0.714160000000     0.441730000000    -0.175759   
N        N      0.621330000000     0.907170000000     0.348900000000    -0.175759   
N        N      0.378670000000     0.727570000000     0.285840000000    -0.175759   
N        N      0.558270000000     0.272430000000     0.651100000000    -0.175759   
N        N      0.441730000000     0.092830000000     0.714160000000    -0.175759   
N        N      0.348900000000     0.621330000000     0.907170000000    -0.175759   
N        N      0.285840000000     0.378670000000     0.727570000000    -0.175759   
N        N      0.651100000000     0.558270000000     0.272430000000    -0.175759   
N        N      0.714160000000     0.441730000000     0.092830000000    -0.175759   
N        N      0.348900000000     0.907170000000     0.621330000000    -0.175759   
N        N      0.285840000000     0.727570000000     0.378670000000    -0.175759   
N        N      0.651100000000     0.272430000000     0.558270000000    -0.175759   
N        N      0.714160000000     0.092830000000     0.441730000000    -0.175759   
N        N      0.907170000000     0.621330000000     0.348900000000    -0.175759   
N        N      0.727570000000     0.378670000000     0.285840000000    -0.175759   
N        N      0.272430000000     0.558270000000     0.651100000000    -0.175759   
N        N      0.092830000000     0.441730000000     0.714160000000    -0.175759   
N        N      0.621330000000     0.348900000000     0.907170000000    -0.175759   
N        N      0.378670000000     0.285840000000     0.727570000000    -0.175759   
N        N      0.558270000000     0.651100000000     0.272430000000    -0.175759   
N        N      0.441730000000     0.714160000000     0.092830000000    -0.175759   


