data_MEFYUT_original

_audit_creation_method RASPA-1.0
_audit_creation_date 2022-1-31
_audit_author_name 'Felipe Lopes de Oliveira <felipe.lopes.oliveira@ibm.com>'

_cell_length_a    10.161
_cell_length_b    13.019
_cell_length_c    18.705
_cell_angle_alpha 90
_cell_angle_beta  90
_cell_angle_gamma 98.67
_cell_volume      2446.14

_symmetry_cell_setting          triclinic
_symmetry_space_group_name_Hall 'P 1'
_symmetry_space_group_name_H-M  'P 1'
_symmetry_Int_Tables_number     1

_symmetry_equiv_pos_as_xyz 'x,y,z'

loop_
_atom_site_label
_atom_site_type_symbol
_atom_site_fract_x
_atom_site_fract_y
_atom_site_fract_z
_atom_site_charge
Zn       Zn     0.819720000000     0.145100000000     0.638820000000     0.440297   
Zn       Zn     0.647190000000     0.326640000000     0.575850000000     0.440297   
Zn       Zn     0.680280000000     0.354900000000     0.138820000000     0.440297   
Zn       Zn     0.852810000000     0.173360000000     0.075850000000     0.440297   
Zn       Zn     0.180280000000     0.854900000000     0.361180000000     0.440297   
Zn       Zn     0.352810000000     0.673360000000     0.424150000000     0.440297   
Zn       Zn     0.319720000000     0.645100000000     0.861180000000     0.440297   
Zn       Zn     0.147190000000     0.826640000000     0.924150000000     0.440297   
H        H      0.288300000000     0.137900000000     0.687600000000     0.105167   
H        H      0.281900000000     0.136600000000     0.602000000000     0.105167   
H        H      0.157300000000     0.992900000000     0.758700000000     0.105167   
H        H      0.068100000000     0.898700000000     0.717900000000     0.105167   
H        H      0.179200000000     0.767300000000     0.649500000000     0.105167   
H        H      0.338500000000     0.779800000000     0.645800000000     0.105167   
H        H      0.390500000000     0.005100000000     0.531900000000     0.105167   
H        H      0.466800000000     0.924200000000     0.573900000000     0.105167   
H        H      0.478500000000     0.928800000000     0.709000000000     0.105167   
H        H      0.408600000000     0.011400000000     0.753000000000     0.105167   
H        H      0.057200000000     0.894800000000     0.584000000000     0.105167   
H        H      0.138900000000     0.986900000000     0.537700000000     0.105167   
H        H      0.211700000000     0.362100000000     0.187600000000     0.105167   
H        H      0.218100000000     0.363400000000     0.102000000000     0.105167   
H        H      0.342700000000     0.507100000000     0.258700000000     0.105167   
H        H      0.431900000000     0.601300000000     0.217900000000     0.105167   
H        H      0.320800000000     0.732700000000     0.149500000000     0.105167   
H        H      0.161500000000     0.720200000000     0.145800000000     0.105167   
H        H      0.109500000000     0.494900000000     0.031900000000     0.105167   
H        H      0.033200000000     0.575800000000     0.073900000000     0.105167   
H        H      0.021500000000     0.571200000000     0.209000000000     0.105167   
H        H      0.091400000000     0.488600000000     0.253000000000     0.105167   
H        H      0.442800000000     0.605200000000     0.084000000000     0.105167   
H        H      0.361100000000     0.513100000000     0.037700000000     0.105167   
H        H      0.711700000000     0.862100000000     0.312400000000     0.105167   
H        H      0.718100000000     0.863400000000     0.398000000000     0.105167   
H        H      0.842700000000     0.007100000000     0.241300000000     0.105167   
H        H      0.931900000000     0.101300000000     0.282100000000     0.105167   
H        H      0.820800000000     0.232700000000     0.350500000000     0.105167   
H        H      0.661500000000     0.220200000000     0.354200000000     0.105167   
H        H      0.609500000000     0.994900000000     0.468100000000     0.105167   
H        H      0.533200000000     0.075800000000     0.426100000000     0.105167   
H        H      0.521500000000     0.071200000000     0.291000000000     0.105167   
H        H      0.591400000000     0.988600000000     0.247000000000     0.105167   
H        H      0.942800000000     0.105200000000     0.416000000000     0.105167   
H        H      0.861100000000     0.013100000000     0.462300000000     0.105167   
H        H      0.788300000000     0.637900000000     0.812400000000     0.105167   
H        H      0.781900000000     0.636600000000     0.898000000000     0.105167   
H        H      0.657300000000     0.492900000000     0.741300000000     0.105167   
H        H      0.568100000000     0.398700000000     0.782100000000     0.105167   
H        H      0.679200000000     0.267300000000     0.850500000000     0.105167   
H        H      0.838500000000     0.279800000000     0.854200000000     0.105167   
H        H      0.890500000000     0.505100000000     0.968100000000     0.105167   
H        H      0.966800000000     0.424200000000     0.926100000000     0.105167   
H        H      0.978500000000     0.428800000000     0.791000000000     0.105167   
H        H      0.908600000000     0.511400000000     0.747000000000     0.105167   
H        H      0.557200000000     0.394800000000     0.916000000000     0.105167   
H        H      0.638900000000     0.486900000000     0.962300000000     0.105167   
C        C      0.532800000000     0.107300000000     0.636400000000     0.00684169 
C        C      0.032000000000     0.074000000000     0.648000000000     0.00684169 
C        C      0.276700000000     0.825600000000     0.782000000000     0.00684169 
C        C      0.259200000000     0.816100000000     0.513600000000     0.00684169 
C        C      0.402000000000     0.034600000000     0.642600000000     0.00684169 
C        C      0.152700000000     0.016100000000     0.648000000000     0.00684169 
C        C      0.271600000000     0.888700000000     0.713400000000     0.00684169 
C        C      0.260800000000     0.885700000000     0.579500000000     0.00684169 
C        C      0.281900000000     0.092300000000     0.645000000000     0.00684169 
C        C      0.152000000000     0.948400000000     0.715600000000     0.00684169 
C        C      0.261700000000     0.818400000000     0.647300000000     0.00684169 
C        C      0.389800000000     0.962600000000     0.575800000000     0.00684169 
C        C      0.401100000000     0.966700000000     0.710000000000     0.00684169 
C        C      0.140900000000     0.944700000000     0.581600000000     0.00684169 
C        C      0.967200000000     0.392700000000     0.136400000000     0.00684169 
C        C      0.468000000000     0.426000000000     0.148000000000     0.00684169 
C        C      0.223300000000     0.674400000000     0.282000000000     0.00684169 
C        C      0.240800000000     0.683900000000     0.013600000000     0.00684169 
C        C      0.098000000000     0.465400000000     0.142600000000     0.00684169 
C        C      0.347300000000     0.483900000000     0.148000000000     0.00684169 
C        C      0.228400000000     0.611300000000     0.213400000000     0.00684169 
C        C      0.239200000000     0.614300000000     0.079500000000     0.00684169 
C        C      0.218100000000     0.407700000000     0.145000000000     0.00684169 
C        C      0.348000000000     0.551600000000     0.215600000000     0.00684169 
C        C      0.238300000000     0.681600000000     0.147300000000     0.00684169 
C        C      0.110200000000     0.537400000000     0.075800000000     0.00684169 
C        C      0.098900000000     0.533300000000     0.210000000000     0.00684169 
C        C      0.359100000000     0.555300000000     0.081600000000     0.00684169 
C        C      0.467200000000     0.892700000000     0.363600000000     0.00684169 
C        C      0.968000000000     0.926000000000     0.352000000000     0.00684169 
C        C      0.723300000000     0.174400000000     0.218000000000     0.00684169 
C        C      0.740800000000     0.183900000000     0.486400000000     0.00684169 
C        C      0.598000000000     0.965400000000     0.357400000000     0.00684169 
C        C      0.847300000000     0.983900000000     0.352000000000     0.00684169 
C        C      0.728400000000     0.111300000000     0.286600000000     0.00684169 
C        C      0.739200000000     0.114300000000     0.420500000000     0.00684169 
C        C      0.718100000000     0.907700000000     0.355000000000     0.00684169 
C        C      0.848000000000     0.051600000000     0.284400000000     0.00684169 
C        C      0.738300000000     0.181600000000     0.352700000000     0.00684169 
C        C      0.610200000000     0.037400000000     0.424200000000     0.00684169 
C        C      0.598900000000     0.033300000000     0.290000000000     0.00684169 
C        C      0.859100000000     0.055300000000     0.418400000000     0.00684169 
C        C      0.032800000000     0.607300000000     0.863600000000     0.00684169 
C        C      0.532000000000     0.574000000000     0.852000000000     0.00684169 
C        C      0.776700000000     0.325600000000     0.718000000000     0.00684169 
C        C      0.759200000000     0.316100000000     0.986400000000     0.00684169 
C        C      0.902000000000     0.534600000000     0.857400000000     0.00684169 
C        C      0.652700000000     0.516100000000     0.852000000000     0.00684169 
C        C      0.771600000000     0.388700000000     0.786600000000     0.00684169 
C        C      0.760800000000     0.385700000000     0.920500000000     0.00684169 
C        C      0.781900000000     0.592300000000     0.855000000000     0.00684169 
C        C      0.652000000000     0.448400000000     0.784400000000     0.00684169 
C        C      0.761700000000     0.318400000000     0.852700000000     0.00684169 
C        C      0.889800000000     0.462600000000     0.924200000000     0.00684169 
C        C      0.901100000000     0.466700000000     0.790000000000     0.00684169 
C        C      0.640900000000     0.444700000000     0.918400000000     0.00684169 
O        O      0.637100000000     0.065300000000     0.638900000000    -0.279797   
O        O      0.531700000000     0.202800000000     0.628500000000    -0.279797   
O        O      0.307800000000     0.736500000000     0.778600000000    -0.279797   
O        O      0.256900000000     0.870700000000     0.840000000000    -0.279797   
O        O      0.046700000000     0.170200000000     0.636700000000    -0.279797   
O        O      0.919000000000     0.023800000000     0.657500000000    -0.279797   
O        O      0.175200000000     0.821000000000     0.465000000000    -0.279797   
O        O      0.348400000000     0.758500000000     0.510200000000    -0.279797   
O        O      0.862900000000     0.434700000000     0.138900000000    -0.279797   
O        O      0.968300000000     0.297200000000     0.128500000000    -0.279797   
O        O      0.192200000000     0.763500000000     0.278600000000    -0.279797   
O        O      0.243100000000     0.629300000000     0.340000000000    -0.279797   
O        O      0.453300000000     0.329800000000     0.136700000000    -0.279797   
O        O      0.581000000000     0.476200000000     0.157500000000    -0.279797   
O        O      0.324800000000     0.679000000000     0.965000000000    -0.279797   
O        O      0.151600000000     0.741500000000     0.010200000000    -0.279797   
O        O      0.362900000000     0.934700000000     0.361100000000    -0.279797   
O        O      0.468300000000     0.797200000000     0.371500000000    -0.279797   
O        O      0.692200000000     0.263500000000     0.221400000000    -0.279797   
O        O      0.743100000000     0.129300000000     0.160000000000    -0.279797   
O        O      0.953300000000     0.829800000000     0.363300000000    -0.279797   
O        O      0.081000000000     0.976200000000     0.342500000000    -0.279797   
O        O      0.824800000000     0.179000000000     0.535000000000    -0.279797   
O        O      0.651600000000     0.241500000000     0.489800000000    -0.279797   
O        O      0.137100000000     0.565300000000     0.861100000000    -0.279797   
O        O      0.031700000000     0.702800000000     0.871500000000    -0.279797   
O        O      0.807800000000     0.236500000000     0.721400000000    -0.279797   
O        O      0.756900000000     0.370700000000     0.660000000000    -0.279797   
O        O      0.546700000000     0.670200000000     0.863300000000    -0.279797   
O        O      0.419000000000     0.523800000000     0.842500000000    -0.279797   
O        O      0.675200000000     0.321000000000     0.035000000000    -0.279797   
O        O      0.848400000000     0.258500000000     0.989800000000    -0.279797   


