data_MEJQEZ_original

_audit_creation_method RASPA-1.0
_audit_creation_date 2022-1-28
_audit_author_name 'Felipe Lopes de Oliveira <felipe.lopes.oliveira@ibm.com>'

_cell_length_a    8.7992
_cell_length_b    10.2696
_cell_length_c    18.6244
_cell_angle_alpha 90
_cell_angle_beta  90
_cell_angle_gamma 90
_cell_volume      1682.98

_symmetry_cell_setting          triclinic
_symmetry_space_group_name_Hall 'P 1'
_symmetry_space_group_name_H-M  'P 1'
_symmetry_Int_Tables_number     1

_symmetry_equiv_pos_as_xyz 'x,y,z'

loop_
_atom_site_label
_atom_site_type_symbol
_atom_site_fract_x
_atom_site_fract_y
_atom_site_fract_z
_atom_site_charge
Zn       Zn     0.133110000000     0.026430000000     0.599170000000     0.390482   
Zn       Zn     0.633110000000     0.973570000000     0.400830000000     0.390482   
Zn       Zn     0.133110000000     0.473570000000     0.099170000000     0.390482   
Zn       Zn     0.633110000000     0.526430000000     0.900830000000     0.390482   
H        H      0.832800000000     0.962900000000     0.528000000000     0.0726645  
H        H      0.235900000000     0.371000000000     0.387900000000     0.0726645  
H        H      0.825100000000     0.296500000000     0.266200000000     0.0726645  
H        H      0.737700000000     0.195200000000     0.305900000000     0.0726645  
H        H      0.957600000000     0.689100000000     0.707600000000     0.0726645  
H        H      0.846400000000     0.542500000000     0.784600000000     0.0726645  
H        H      0.607200000000     0.818500000000     0.874900000000     0.0726645  
H        H      0.708100000000     0.970500000000     0.798300000000     0.0726645  
H        H      0.332800000000     0.037100000000     0.472000000000     0.0726645  
H        H      0.735900000000     0.629000000000     0.612100000000     0.0726645  
H        H      0.325100000000     0.703500000000     0.733800000000     0.0726645  
H        H      0.237700000000     0.804800000000     0.694100000000     0.0726645  
H        H      0.457600000000     0.310900000000     0.292400000000     0.0726645  
H        H      0.346400000000     0.457500000000     0.215400000000     0.0726645  
H        H      0.107200000000     0.181500000000     0.125100000000     0.0726645  
H        H      0.208100000000     0.029500000000     0.201700000000     0.0726645  
H        H      0.832800000000     0.537100000000     0.028000000000     0.0726645  
H        H      0.235900000000     0.129000000000     0.887900000000     0.0726645  
H        H      0.825100000000     0.203500000000     0.766200000000     0.0726645  
H        H      0.737700000000     0.304800000000     0.805900000000     0.0726645  
H        H      0.957600000000     0.810900000000     0.207600000000     0.0726645  
H        H      0.846400000000     0.957500000000     0.284600000000     0.0726645  
H        H      0.607200000000     0.681500000000     0.374900000000     0.0726645  
H        H      0.708100000000     0.529500000000     0.298300000000     0.0726645  
H        H      0.332800000000     0.462900000000     0.972000000000     0.0726645  
H        H      0.735900000000     0.871000000000     0.112100000000     0.0726645  
H        H      0.325100000000     0.796500000000     0.233800000000     0.0726645  
H        H      0.237700000000     0.695200000000     0.194100000000     0.0726645  
H        H      0.457600000000     0.189100000000     0.792400000000     0.0726645  
H        H      0.346400000000     0.042500000000     0.715400000000     0.0726645  
H        H      0.107200000000     0.318500000000     0.625100000000     0.0726645  
H        H      0.208100000000     0.470500000000     0.701700000000     0.0726645  
C        C      0.878100000000     0.026400000000     0.499500000000     0.0684033  
C        C      0.153200000000     0.316600000000     0.396070000000     0.0684033  
C        C      0.923400000000     0.242400000000     0.353220000000     0.0684033  
C        C      0.919000000000     0.160100000000     0.413680000000     0.0684033  
C        C      0.038000000000     0.167400000000     0.462190000000     0.0684033  
C        C      0.913400000000     0.944200000000     0.693110000000     0.0684033  
C        C      0.886100000000     0.717100000000     0.740940000000     0.0684033  
C        C      0.844800000000     0.847000000000     0.744380000000     0.0684033  
C        C      0.819900000000     0.630000000000     0.787660000000     0.0684033  
C        C      0.678200000000     0.792700000000     0.840700000000     0.0684033  
C        C      0.738500000000     0.883900000000     0.795100000000     0.0684033  
C        C      0.378100000000     0.973600000000     0.500500000000     0.0684033  
C        C      0.653200000000     0.683400000000     0.603930000000     0.0684033  
C        C      0.423400000000     0.757600000000     0.646780000000     0.0684033  
C        C      0.419000000000     0.839900000000     0.586320000000     0.0684033  
C        C      0.538000000000     0.832600000000     0.537810000000     0.0684033  
C        C      0.413400000000     0.055800000000     0.306890000000     0.0684033  
C        C      0.386100000000     0.282900000000     0.259060000000     0.0684033  
C        C      0.344800000000     0.153000000000     0.255620000000     0.0684033  
C        C      0.319900000000     0.370000000000     0.212340000000     0.0684033  
C        C      0.178200000000     0.207300000000     0.159300000000     0.0684033  
C        C      0.238500000000     0.116100000000     0.204900000000     0.0684033  
C        C      0.878100000000     0.473600000000     0.999500000000     0.0684033  
C        C      0.153200000000     0.183400000000     0.896070000000     0.0684033  
C        C      0.923400000000     0.257600000000     0.853220000000     0.0684033  
C        C      0.919000000000     0.339900000000     0.913680000000     0.0684033  
C        C      0.038000000000     0.332600000000     0.962190000000     0.0684033  
C        C      0.913400000000     0.555800000000     0.193110000000     0.0684033  
C        C      0.886100000000     0.782900000000     0.240940000000     0.0684033  
C        C      0.844800000000     0.653000000000     0.244380000000     0.0684033  
C        C      0.819900000000     0.870000000000     0.287660000000     0.0684033  
C        C      0.678200000000     0.707300000000     0.340700000000     0.0684033  
C        C      0.738500000000     0.616100000000     0.295100000000     0.0684033  
C        C      0.378100000000     0.526400000000     0.000500000000     0.0684033  
C        C      0.653200000000     0.816600000000     0.103930000000     0.0684033  
C        C      0.423400000000     0.742400000000     0.146780000000     0.0684033  
C        C      0.419000000000     0.660100000000     0.086320000000     0.0684033  
C        C      0.538000000000     0.667400000000     0.037810000000     0.0684033  
C        C      0.413400000000     0.444200000000     0.806890000000     0.0684033  
C        C      0.386100000000     0.217100000000     0.759060000000     0.0684033  
C        C      0.344800000000     0.347000000000     0.755620000000     0.0684033  
C        C      0.319900000000     0.130000000000     0.712340000000     0.0684033  
C        C      0.178200000000     0.292700000000     0.659300000000     0.0684033  
C        C      0.238500000000     0.383900000000     0.704900000000     0.0684033  
N        N      0.010200000000     0.081800000000     0.517050000000    -0.191709   
N        N      0.160700000000     0.245300000000     0.455750000000    -0.191709   
N        N      0.815500000000     0.068000000000     0.438570000000    -0.191709   
N        N      0.044400000000     0.321300000000     0.346280000000    -0.191709   
N        N      0.815900000000     0.245000000000     0.302400000000    -0.191709   
N        N      0.719400000000     0.666500000000     0.837030000000    -0.191709   
N        N      0.510200000000     0.918200000000     0.482950000000    -0.191709   
N        N      0.660700000000     0.754700000000     0.544250000000    -0.191709   
N        N      0.315500000000     0.932000000000     0.561430000000    -0.191709   
N        N      0.544400000000     0.678700000000     0.653720000000    -0.191709   
N        N      0.315900000000     0.755000000000     0.697600000000    -0.191709   
N        N      0.219400000000     0.333500000000     0.162970000000    -0.191709   
N        N      0.010200000000     0.418200000000     0.017050000000    -0.191709   
N        N      0.160700000000     0.254700000000     0.955750000000    -0.191709   
N        N      0.815500000000     0.432000000000     0.938570000000    -0.191709   
N        N      0.044400000000     0.178700000000     0.846280000000    -0.191709   
N        N      0.815900000000     0.255000000000     0.802400000000    -0.191709   
N        N      0.719400000000     0.833500000000     0.337030000000    -0.191709   
N        N      0.510200000000     0.581800000000     0.982950000000    -0.191709   
N        N      0.660700000000     0.745300000000     0.044250000000    -0.191709   
N        N      0.315500000000     0.568000000000     0.061430000000    -0.191709   
N        N      0.544400000000     0.821300000000     0.153720000000    -0.191709   
N        N      0.315900000000     0.745000000000     0.197600000000    -0.191709   
N        N      0.219400000000     0.166500000000     0.662970000000    -0.191709   
O        O      0.032700000000     0.901900000000     0.660770000000    -0.28699    
O        O      0.857000000000     0.051400000000     0.685060000000    -0.28699    
O        O      0.532700000000     0.098100000000     0.339230000000    -0.28699    
O        O      0.357000000000     0.948600000000     0.314940000000    -0.28699    
O        O      0.032700000000     0.598100000000     0.160770000000    -0.28699    
O        O      0.857000000000     0.448600000000     0.185060000000    -0.28699    
O        O      0.532700000000     0.401900000000     0.839230000000    -0.28699    
O        O      0.357000000000     0.551400000000     0.814940000000    -0.28699    


