data_MEJQOJ_original

_audit_creation_method RASPA-1.0
_audit_creation_date 2022-1-29
_audit_author_name 'Felipe Lopes de Oliveira <felipe.lopes.oliveira@ibm.com>'

_cell_length_a    8.9454
_cell_length_b    10.6981
_cell_length_c    18.4474
_cell_angle_alpha 90
_cell_angle_beta  90
_cell_angle_gamma 90
_cell_volume      1765.39

_symmetry_cell_setting          triclinic
_symmetry_space_group_name_Hall 'P 1'
_symmetry_space_group_name_H-M  'P 1'
_symmetry_Int_Tables_number     1

_symmetry_equiv_pos_as_xyz 'x,y,z'

loop_
_atom_site_label
_atom_site_type_symbol
_atom_site_fract_x
_atom_site_fract_y
_atom_site_fract_z
_atom_site_charge
Zn       Zn     0.131670000000     0.014600000000     0.602470000000     0.387287   
Zn       Zn     0.631670000000     0.985400000000     0.397530000000     0.387287   
Zn       Zn     0.131670000000     0.485400000000     0.102470000000     0.387287   
Zn       Zn     0.631670000000     0.514600000000     0.897530000000     0.387287   
H        H      0.827000000000     0.958000000000     0.528000000000     0.072922   
H        H      0.236200000000     0.358600000000     0.403100000000     0.072922   
H        H      0.842500000000     0.300200000000     0.271700000000     0.072922   
H        H      0.751700000000     0.201100000000     0.307400000000     0.072922   
H        H      0.963200000000     0.674400000000     0.706200000000     0.072922   
H        H      0.851200000000     0.531000000000     0.780200000000     0.072922   
H        H      0.587700000000     0.786100000000     0.860300000000     0.072922   
H        H      0.694200000000     0.937000000000     0.788900000000     0.072922   
H        H      0.327000000000     0.042000000000     0.472000000000     0.072922   
H        H      0.736200000000     0.641400000000     0.596900000000     0.072922   
H        H      0.342500000000     0.699800000000     0.728300000000     0.072922   
H        H      0.251700000000     0.798900000000     0.692600000000     0.072922   
H        H      0.463200000000     0.325600000000     0.293800000000     0.072922   
H        H      0.351200000000     0.469000000000     0.219800000000     0.072922   
H        H      0.087700000000     0.213900000000     0.139700000000     0.072922   
H        H      0.194200000000     0.063000000000     0.211100000000     0.072922   
H        H      0.827000000000     0.542000000000     0.028000000000     0.072922   
H        H      0.236200000000     0.141400000000     0.903100000000     0.072922   
H        H      0.842500000000     0.199800000000     0.771700000000     0.072922   
H        H      0.751700000000     0.298900000000     0.807400000000     0.072922   
H        H      0.963200000000     0.825600000000     0.206200000000     0.072922   
H        H      0.851200000000     0.969000000000     0.280200000000     0.072922   
H        H      0.587700000000     0.713900000000     0.360300000000     0.072922   
H        H      0.694200000000     0.563000000000     0.288900000000     0.072922   
H        H      0.327000000000     0.458000000000     0.972000000000     0.072922   
H        H      0.736200000000     0.858600000000     0.096900000000     0.072922   
H        H      0.342500000000     0.800200000000     0.228300000000     0.072922   
H        H      0.251700000000     0.701100000000     0.192600000000     0.072922   
H        H      0.463200000000     0.174400000000     0.793800000000     0.072922   
H        H      0.351200000000     0.031000000000     0.719800000000     0.072922   
H        H      0.087700000000     0.286100000000     0.639700000000     0.072922   
H        H      0.194200000000     0.437000000000     0.711100000000     0.072922   
C        C      0.874500000000     0.019800000000     0.501000000000     0.0670961  
C        C      0.155800000000     0.304100000000     0.407900000000     0.0670961  
C        C      0.933100000000     0.238000000000     0.359000000000     0.0670961  
C        C      0.922000000000     0.153600000000     0.418400000000     0.0670961  
C        C      0.035700000000     0.156400000000     0.468400000000     0.0670961  
C        C      0.920700000000     0.922300000000     0.694800000000     0.0670961  
C        C      0.888600000000     0.699900000000     0.738100000000     0.0670961  
C        C      0.847500000000     0.822200000000     0.740600000000     0.0670961  
C        C      0.820500000000     0.613900000000     0.782400000000     0.0670961  
C        C      0.665800000000     0.764100000000     0.829500000000     0.0670961  
C        C      0.729000000000     0.855100000000     0.787100000000     0.0670961  
C        C      0.374500000000     0.980200000000     0.499000000000     0.0670961  
C        C      0.655800000000     0.695900000000     0.592100000000     0.0670961  
C        C      0.433100000000     0.762000000000     0.641000000000     0.0670961  
C        C      0.422000000000     0.846400000000     0.581600000000     0.0670961  
C        C      0.535700000000     0.843600000000     0.531600000000     0.0670961  
C        C      0.420700000000     0.077700000000     0.305200000000     0.0670961  
C        C      0.388600000000     0.300100000000     0.261900000000     0.0670961  
C        C      0.347500000000     0.177800000000     0.259400000000     0.0670961  
C        C      0.320500000000     0.386100000000     0.217600000000     0.0670961  
C        C      0.165800000000     0.235900000000     0.170500000000     0.0670961  
C        C      0.229000000000     0.144900000000     0.212900000000     0.0670961  
C        C      0.874500000000     0.480200000000     0.001000000000     0.0670961  
C        C      0.155800000000     0.195900000000     0.907900000000     0.0670961  
C        C      0.933100000000     0.262000000000     0.859000000000     0.0670961  
C        C      0.922000000000     0.346400000000     0.918400000000     0.0670961  
C        C      0.035700000000     0.343600000000     0.968400000000     0.0670961  
C        C      0.920700000000     0.577700000000     0.194800000000     0.0670961  
C        C      0.888600000000     0.800100000000     0.238100000000     0.0670961  
C        C      0.847500000000     0.677800000000     0.240600000000     0.0670961  
C        C      0.820500000000     0.886100000000     0.282400000000     0.0670961  
C        C      0.665800000000     0.735900000000     0.329500000000     0.0670961  
C        C      0.729000000000     0.644900000000     0.287100000000     0.0670961  
C        C      0.374500000000     0.519800000000     0.999000000000     0.0670961  
C        C      0.655800000000     0.804100000000     0.092100000000     0.0670961  
C        C      0.433100000000     0.738000000000     0.141000000000     0.0670961  
C        C      0.422000000000     0.653600000000     0.081600000000     0.0670961  
C        C      0.535700000000     0.656400000000     0.031600000000     0.0670961  
C        C      0.420700000000     0.422300000000     0.805200000000     0.0670961  
C        C      0.388600000000     0.199900000000     0.761900000000     0.0670961  
C        C      0.347500000000     0.322200000000     0.759400000000     0.0670961  
C        C      0.320500000000     0.113900000000     0.717600000000     0.0670961  
C        C      0.165800000000     0.264100000000     0.670500000000     0.0670961  
C        C      0.229000000000     0.355100000000     0.712900000000     0.0670961  
N        N      0.006100000000     0.070800000000     0.521600000000    -0.190197   
N        N      0.160700000000     0.230800000000     0.465700000000    -0.190197   
N        N      0.817600000000     0.064300000000     0.439400000000    -0.190197   
N        N      0.052700000000     0.312100000000     0.355000000000    -0.190197   
N        N      0.830100000000     0.247600000000     0.306400000000    -0.190197   
N        N      0.711500000000     0.645300000000     0.828700000000    -0.190197   
N        N      0.506100000000     0.929200000000     0.478400000000    -0.190197   
N        N      0.660700000000     0.769200000000     0.534300000000    -0.190197   
N        N      0.317600000000     0.935700000000     0.560600000000    -0.190197   
N        N      0.552700000000     0.687900000000     0.645000000000    -0.190197   
N        N      0.330100000000     0.752400000000     0.693600000000    -0.190197   
N        N      0.211500000000     0.354700000000     0.171300000000    -0.190197   
N        N      0.006100000000     0.429200000000     0.021600000000    -0.190197   
N        N      0.160700000000     0.269200000000     0.965700000000    -0.190197   
N        N      0.817600000000     0.435700000000     0.939400000000    -0.190197   
N        N      0.052700000000     0.187900000000     0.855000000000    -0.190197   
N        N      0.830100000000     0.252400000000     0.806400000000    -0.190197   
N        N      0.711500000000     0.854700000000     0.328700000000    -0.190197   
N        N      0.506100000000     0.570800000000     0.978400000000    -0.190197   
N        N      0.660700000000     0.730800000000     0.034300000000    -0.190197   
N        N      0.317600000000     0.564300000000     0.060600000000    -0.190197   
N        N      0.552700000000     0.812100000000     0.145000000000    -0.190197   
N        N      0.330100000000     0.747600000000     0.193600000000    -0.190197   
N        N      0.211500000000     0.145300000000     0.671300000000    -0.190197   
O        O      0.038600000000     0.883600000000     0.661080000000    -0.283769   
O        O      0.871200000000     0.027400000000     0.691900000000    -0.283769   
O        O      0.538600000000     0.116400000000     0.338920000000    -0.283769   
O        O      0.371200000000     0.972600000000     0.308100000000    -0.283769   
O        O      0.038600000000     0.616400000000     0.161080000000    -0.283769   
O        O      0.871200000000     0.472600000000     0.191900000000    -0.283769   
O        O      0.538600000000     0.383600000000     0.838920000000    -0.283769   
O        O      0.371200000000     0.527400000000     0.808100000000    -0.283769   


