data_MIBQAR16_original

_audit_creation_method RASPA-1.0
_audit_creation_date 2022-1-30
_audit_author_name 'Felipe Lopes de Oliveira <felipe.lopes.oliveira@ibm.com>'

_cell_length_a    18.228
_cell_length_b    18.228
_cell_length_c    18.228
_cell_angle_alpha 60
_cell_angle_beta  60
_cell_angle_gamma 60
_cell_volume      4282.55

_symmetry_cell_setting          triclinic
_symmetry_space_group_name_Hall 'P 1'
_symmetry_space_group_name_H-M  'P 1'
_symmetry_Int_Tables_number     1

_symmetry_equiv_pos_as_xyz 'x,y,z'

loop_
_atom_site_label
_atom_site_type_symbol
_atom_site_fract_x
_atom_site_fract_y
_atom_site_fract_z
_atom_site_charge
Zn       Zn     0.293580000000     0.293590000000     0.119240000000     0.483245   
Zn       Zn     0.293580000000     0.293590000000     0.293590000000     0.483245   
Zn       Zn     0.119230000000     0.293590000000     0.293590000000     0.483245   
Zn       Zn     0.293580000000     0.119240000000     0.293590000000     0.483245   
Zn       Zn     0.706420000000     0.706410000000     0.880760000000     0.483245   
Zn       Zn     0.706420000000     0.706410000000     0.706410000000     0.483245   
Zn       Zn     0.706420000000     0.880760000000     0.706410000000     0.483245   
Zn       Zn     0.880770000000     0.706410000000     0.706410000000     0.483245   
H        H      0.455700000000     0.455700000000     0.936700000000     0.0594499  
H        H      0.455700000000     0.455700000000     0.151900000000     0.0594499  
H        H      0.936700000000     0.151900000000     0.455700000000     0.0594499  
H        H      0.151900000000     0.936700000000     0.455700000000     0.0594499  
H        H      0.455700000000     0.936700000000     0.151900000000     0.0594499  
H        H      0.455700000000     0.151900000000     0.936700000000     0.0594499  
H        H      0.936700000000     0.455700000000     0.455700000000     0.0594499  
H        H      0.151900000000     0.455700000000     0.455700000000     0.0594499  
H        H      0.455700000000     0.151900000000     0.455700000000     0.0594499  
H        H      0.455700000000     0.936700000000     0.455700000000     0.0594499  
H        H      0.936700000000     0.455700000000     0.151900000000     0.0594499  
H        H      0.151900000000     0.455700000000     0.936700000000     0.0594499  
H        H      0.544300000000     0.544300000000     0.063300000000     0.0594499  
H        H      0.544300000000     0.544300000000     0.848100000000     0.0594499  
H        H      0.848100000000     0.063300000000     0.544300000000     0.0594499  
H        H      0.063300000000     0.848100000000     0.544300000000     0.0594499  
H        H      0.063300000000     0.544300000000     0.848100000000     0.0594499  
H        H      0.848100000000     0.544300000000     0.063300000000     0.0594499  
H        H      0.544300000000     0.063300000000     0.544300000000     0.0594499  
H        H      0.544300000000     0.848100000000     0.544300000000     0.0594499  
H        H      0.848100000000     0.544300000000     0.544300000000     0.0594499  
H        H      0.063300000000     0.544300000000     0.544300000000     0.0594499  
H        H      0.544300000000     0.063300000000     0.848100000000     0.0594499  
H        H      0.544300000000     0.848100000000     0.063300000000     0.0594499  
C        C      0.473400000000     0.473400000000     0.963560000000     0.0620076  
C        C      0.473400000000     0.473400000000     0.089640000000     0.0620076  
C        C      0.963560000000     0.089640000000     0.473400000000     0.0620076  
C        C      0.089640000000     0.963560000000     0.473400000000     0.0620076  
C        C      0.473400000000     0.963560000000     0.089640000000     0.0620076  
C        C      0.473400000000     0.089640000000     0.963560000000     0.0620076  
C        C      0.963560000000     0.473400000000     0.473400000000     0.0620076  
C        C      0.089640000000     0.473400000000     0.473400000000     0.0620076  
C        C      0.473400000000     0.089640000000     0.473400000000     0.0620076  
C        C      0.473400000000     0.963560000000     0.473400000000     0.0620076  
C        C      0.963560000000     0.473400000000     0.089640000000     0.0620076  
C        C      0.089640000000     0.473400000000     0.963560000000     0.0620076  
C        C      0.526600000000     0.526600000000     0.036440000000     0.0620076  
C        C      0.526600000000     0.526600000000     0.910360000000     0.0620076  
C        C      0.910360000000     0.036440000000     0.526600000000     0.0620076  
C        C      0.036440000000     0.910360000000     0.526600000000     0.0620076  
C        C      0.036440000000     0.526600000000     0.910360000000     0.0620076  
C        C      0.910360000000     0.526600000000     0.036440000000     0.0620076  
C        C      0.526600000000     0.036440000000     0.526600000000     0.0620076  
C        C      0.526600000000     0.910360000000     0.526600000000     0.0620076  
C        C      0.910360000000     0.526600000000     0.526600000000     0.0620076  
C        C      0.036440000000     0.526600000000     0.526600000000     0.0620076  
C        C      0.526600000000     0.036440000000     0.910360000000     0.0620076  
C        C      0.526600000000     0.910360000000     0.036440000000     0.0620076  
C        C      0.388500000000     0.388500000000     0.111500000000     0.0620076  
C        C      0.446100000000     0.446100000000     0.053900000000     0.0620076  
C        C      0.111500000000     0.111500000000     0.388500000000     0.0620076  
C        C      0.053900000000     0.053900000000     0.446100000000     0.0620076  
C        C      0.388500000000     0.111500000000     0.111500000000     0.0620076  
C        C      0.446100000000     0.053900000000     0.053900000000     0.0620076  
C        C      0.111500000000     0.388500000000     0.388500000000     0.0620076  
C        C      0.053900000000     0.446100000000     0.446100000000     0.0620076  
C        C      0.388500000000     0.111500000000     0.388500000000     0.0620076  
C        C      0.446100000000     0.053900000000     0.446100000000     0.0620076  
C        C      0.111500000000     0.388500000000     0.111500000000     0.0620076  
C        C      0.053900000000     0.446100000000     0.053900000000     0.0620076  
C        C      0.611500000000     0.611500000000     0.888500000000     0.0620076  
C        C      0.553900000000     0.553900000000     0.946100000000     0.0620076  
C        C      0.888500000000     0.888500000000     0.611500000000     0.0620076  
C        C      0.946100000000     0.946100000000     0.553900000000     0.0620076  
C        C      0.888500000000     0.611500000000     0.888500000000     0.0620076  
C        C      0.946100000000     0.553900000000     0.946100000000     0.0620076  
C        C      0.611500000000     0.888500000000     0.611500000000     0.0620076  
C        C      0.553900000000     0.946100000000     0.553900000000     0.0620076  
C        C      0.888500000000     0.611500000000     0.611500000000     0.0620076  
C        C      0.946100000000     0.553900000000     0.553900000000     0.0620076  
C        C      0.611500000000     0.888500000000     0.888500000000     0.0620076  
C        C      0.553900000000     0.946100000000     0.946100000000     0.0620076  
O        O      0.250000000000     0.250000000000     0.250000000000    -0.318043   
O        O      0.750000000000     0.750000000000     0.750000000000    -0.318043   
O        O      0.366100000000     0.366100000000     0.073220000000    -0.318043   
O        O      0.366100000000     0.366100000000     0.194580000000    -0.318043   
O        O      0.073220000000     0.194580000000     0.366100000000    -0.318043   
O        O      0.194580000000     0.073220000000     0.366100000000    -0.318043   
O        O      0.366100000000     0.073220000000     0.194580000000    -0.318043   
O        O      0.366100000000     0.194580000000     0.073220000000    -0.318043   
O        O      0.073220000000     0.366100000000     0.366100000000    -0.318043   
O        O      0.194580000000     0.366100000000     0.366100000000    -0.318043   
O        O      0.366100000000     0.194580000000     0.366100000000    -0.318043   
O        O      0.366100000000     0.073220000000     0.366100000000    -0.318043   
O        O      0.073220000000     0.366100000000     0.194580000000    -0.318043   
O        O      0.194580000000     0.366100000000     0.073220000000    -0.318043   
O        O      0.633900000000     0.633900000000     0.926780000000    -0.318043   
O        O      0.633900000000     0.633900000000     0.805420000000    -0.318043   
O        O      0.805420000000     0.926780000000     0.633900000000    -0.318043   
O        O      0.926780000000     0.805420000000     0.633900000000    -0.318043   
O        O      0.926780000000     0.633900000000     0.805420000000    -0.318043   
O        O      0.805420000000     0.633900000000     0.926780000000    -0.318043   
O        O      0.633900000000     0.926780000000     0.633900000000    -0.318043   
O        O      0.633900000000     0.805420000000     0.633900000000    -0.318043   
O        O      0.805420000000     0.633900000000     0.633900000000    -0.318043   
O        O      0.926780000000     0.633900000000     0.633900000000    -0.318043   
O        O      0.633900000000     0.926780000000     0.805420000000    -0.318043   
O        O      0.633900000000     0.805420000000     0.926780000000    -0.318043   


