data_MIBQAR_original

_audit_creation_method RASPA-1.0
_audit_creation_date 2022-1-30
_audit_author_name 'Felipe Lopes de Oliveira <felipe.lopes.oliveira@ibm.com>'

_cell_length_a    18.3083
_cell_length_b    18.3083
_cell_length_c    18.3083
_cell_angle_alpha 60
_cell_angle_beta  60
_cell_angle_gamma 60
_cell_volume      4339.39

_symmetry_cell_setting          triclinic
_symmetry_space_group_name_Hall 'P 1'
_symmetry_space_group_name_H-M  'P 1'
_symmetry_Int_Tables_number     1

_symmetry_equiv_pos_as_xyz 'x,y,z'

loop_
_atom_site_label
_atom_site_type_symbol
_atom_site_fract_x
_atom_site_fract_y
_atom_site_fract_z
_atom_site_charge
Zn       Zn     0.293420000000     0.293410000000     0.119760000000     0.473934   
Zn       Zn     0.293420000000     0.293410000000     0.293410000000     0.473934   
Zn       Zn     0.119770000000     0.293410000000     0.293410000000     0.473934   
Zn       Zn     0.293420000000     0.119760000000     0.293410000000     0.473934   
Zn       Zn     0.706580000000     0.706590000000     0.880240000000     0.473934   
Zn       Zn     0.706580000000     0.706590000000     0.706590000000     0.473934   
Zn       Zn     0.706580000000     0.880240000000     0.706590000000     0.473934   
Zn       Zn     0.880230000000     0.706590000000     0.706590000000     0.473934   
H        H      0.454800000000     0.454800000000     0.934800000000     0.0602831  
H        H      0.454800000000     0.454800000000     0.155600000000     0.0602831  
H        H      0.934800000000     0.155600000000     0.454800000000     0.0602831  
H        H      0.155600000000     0.934800000000     0.454800000000     0.0602831  
H        H      0.454800000000     0.934800000000     0.155600000000     0.0602831  
H        H      0.454800000000     0.155600000000     0.934800000000     0.0602831  
H        H      0.934800000000     0.454800000000     0.454800000000     0.0602831  
H        H      0.155600000000     0.454800000000     0.454800000000     0.0602831  
H        H      0.454800000000     0.155600000000     0.454800000000     0.0602831  
H        H      0.454800000000     0.934800000000     0.454800000000     0.0602831  
H        H      0.934800000000     0.454800000000     0.155600000000     0.0602831  
H        H      0.155600000000     0.454800000000     0.934800000000     0.0602831  
H        H      0.545200000000     0.545200000000     0.065200000000     0.0602831  
H        H      0.545200000000     0.545200000000     0.844400000000     0.0602831  
H        H      0.844400000000     0.065200000000     0.545200000000     0.0602831  
H        H      0.065200000000     0.844400000000     0.545200000000     0.0602831  
H        H      0.065200000000     0.545200000000     0.844400000000     0.0602831  
H        H      0.844400000000     0.545200000000     0.065200000000     0.0602831  
H        H      0.545200000000     0.065200000000     0.545200000000     0.0602831  
H        H      0.545200000000     0.844400000000     0.545200000000     0.0602831  
H        H      0.844400000000     0.545200000000     0.545200000000     0.0602831  
H        H      0.065200000000     0.545200000000     0.545200000000     0.0602831  
H        H      0.545200000000     0.065200000000     0.844400000000     0.0602831  
H        H      0.545200000000     0.844400000000     0.065200000000     0.0602831  
C        C      0.473170000000     0.473170000000     0.961310000000     0.0580648  
C        C      0.473170000000     0.473170000000     0.092350000000     0.0580648  
C        C      0.961310000000     0.092350000000     0.473170000000     0.0580648  
C        C      0.092350000000     0.961310000000     0.473170000000     0.0580648  
C        C      0.473170000000     0.961310000000     0.092350000000     0.0580648  
C        C      0.473170000000     0.092350000000     0.961310000000     0.0580648  
C        C      0.961310000000     0.473170000000     0.473170000000     0.0580648  
C        C      0.092350000000     0.473170000000     0.473170000000     0.0580648  
C        C      0.473170000000     0.092350000000     0.473170000000     0.0580648  
C        C      0.473170000000     0.961310000000     0.473170000000     0.0580648  
C        C      0.961310000000     0.473170000000     0.092350000000     0.0580648  
C        C      0.092350000000     0.473170000000     0.961310000000     0.0580648  
C        C      0.526830000000     0.526830000000     0.038690000000     0.0580648  
C        C      0.526830000000     0.526830000000     0.907650000000     0.0580648  
C        C      0.907650000000     0.038690000000     0.526830000000     0.0580648  
C        C      0.038690000000     0.907650000000     0.526830000000     0.0580648  
C        C      0.038690000000     0.526830000000     0.907650000000     0.0580648  
C        C      0.907650000000     0.526830000000     0.038690000000     0.0580648  
C        C      0.526830000000     0.038690000000     0.526830000000     0.0580648  
C        C      0.526830000000     0.907650000000     0.526830000000     0.0580648  
C        C      0.907650000000     0.526830000000     0.526830000000     0.0580648  
C        C      0.038690000000     0.526830000000     0.526830000000     0.0580648  
C        C      0.526830000000     0.038690000000     0.907650000000     0.0580648  
C        C      0.526830000000     0.907650000000     0.038690000000     0.0580648  
C        C      0.388430000000     0.388430000000     0.111570000000     0.0580648  
C        C      0.446410000000     0.446410000000     0.053590000000     0.0580648  
C        C      0.111570000000     0.111570000000     0.388430000000     0.0580648  
C        C      0.053590000000     0.053590000000     0.446410000000     0.0580648  
C        C      0.388430000000     0.111570000000     0.111570000000     0.0580648  
C        C      0.446410000000     0.053590000000     0.053590000000     0.0580648  
C        C      0.111570000000     0.388430000000     0.388430000000     0.0580648  
C        C      0.053590000000     0.446410000000     0.446410000000     0.0580648  
C        C      0.388430000000     0.111570000000     0.388430000000     0.0580648  
C        C      0.446410000000     0.053590000000     0.446410000000     0.0580648  
C        C      0.111570000000     0.388430000000     0.111570000000     0.0580648  
C        C      0.053590000000     0.446410000000     0.053590000000     0.0580648  
C        C      0.611570000000     0.611570000000     0.888430000000     0.0580648  
C        C      0.553590000000     0.553590000000     0.946410000000     0.0580648  
C        C      0.888430000000     0.888430000000     0.611570000000     0.0580648  
C        C      0.946410000000     0.946410000000     0.553590000000     0.0580648  
C        C      0.888430000000     0.611570000000     0.888430000000     0.0580648  
C        C      0.946410000000     0.553590000000     0.946410000000     0.0580648  
C        C      0.611570000000     0.888430000000     0.611570000000     0.0580648  
C        C      0.553590000000     0.946410000000     0.553590000000     0.0580648  
C        C      0.888430000000     0.611570000000     0.611570000000     0.0580648  
C        C      0.946410000000     0.553590000000     0.553590000000     0.0580648  
C        C      0.611570000000     0.888430000000     0.888430000000     0.0580648  
C        C      0.553590000000     0.946410000000     0.946410000000     0.0580648  
O        O      0.250000000000     0.250000000000     0.250000000000    -0.308668   
O        O      0.750000000000     0.750000000000     0.750000000000    -0.308668   
O        O      0.366290000000     0.366290000000     0.072370000000    -0.308668   
O        O      0.366290000000     0.366290000000     0.195050000000    -0.308668   
O        O      0.072370000000     0.195050000000     0.366290000000    -0.308668   
O        O      0.195050000000     0.072370000000     0.366290000000    -0.308668   
O        O      0.366290000000     0.072370000000     0.195050000000    -0.308668   
O        O      0.366290000000     0.195050000000     0.072370000000    -0.308668   
O        O      0.072370000000     0.366290000000     0.366290000000    -0.308668   
O        O      0.195050000000     0.366290000000     0.366290000000    -0.308668   
O        O      0.366290000000     0.195050000000     0.366290000000    -0.308668   
O        O      0.366290000000     0.072370000000     0.366290000000    -0.308668   
O        O      0.072370000000     0.366290000000     0.195050000000    -0.308668   
O        O      0.195050000000     0.366290000000     0.072370000000    -0.308668   
O        O      0.633710000000     0.633710000000     0.927630000000    -0.308668   
O        O      0.633710000000     0.633710000000     0.804950000000    -0.308668   
O        O      0.804950000000     0.927630000000     0.633710000000    -0.308668   
O        O      0.927630000000     0.804950000000     0.633710000000    -0.308668   
O        O      0.927630000000     0.633710000000     0.804950000000    -0.308668   
O        O      0.804950000000     0.633710000000     0.927630000000    -0.308668   
O        O      0.633710000000     0.927630000000     0.633710000000    -0.308668   
O        O      0.633710000000     0.804950000000     0.633710000000    -0.308668   
O        O      0.804950000000     0.633710000000     0.633710000000    -0.308668   
O        O      0.927630000000     0.633710000000     0.633710000000    -0.308668   
O        O      0.633710000000     0.927630000000     0.804950000000    -0.308668   
O        O      0.633710000000     0.804950000000     0.927630000000    -0.308668   


