data_MIKJAR_original

_audit_creation_method RASPA-1.0
_audit_creation_date 2022-1-30
_audit_author_name 'Felipe Lopes de Oliveira <felipe.lopes.oliveira@ibm.com>'

_cell_length_a    13.4664
_cell_length_b    14.4448
_cell_length_c    14.4449
_cell_angle_alpha 110.802
_cell_angle_beta  108.105
_cell_angle_gamma 108.104
_cell_volume      2198.39

_symmetry_cell_setting          triclinic
_symmetry_space_group_name_Hall 'P 1'
_symmetry_space_group_name_H-M  'P 1'
_symmetry_Int_Tables_number     1

_symmetry_equiv_pos_as_xyz 'x,y,z'

loop_
_atom_site_label
_atom_site_type_symbol
_atom_site_fract_x
_atom_site_fract_y
_atom_site_fract_z
_atom_site_charge
Ga       Ga     0.519600000000     0.373200000000     0.547100000000     3.47587    
Ga       Ga     0.735700000000     0.543200000000     0.407400000000     3.47587    
Ga       Ga     0.972500000000     0.452900000000     0.826100000000     3.47587    
Ga       Ga     0.328300000000     0.592600000000     0.135800000000     3.47587    
Ga       Ga     0.146400000000     0.173900000000     0.626800000000     3.47587    
Ga       Ga     0.192500000000     0.864200000000     0.456800000000     3.47587    
Ga       Ga     0.480400000000     0.626800000000     0.452900000000     3.47587    
Ga       Ga     0.264300000000     0.456800000000     0.592600000000     3.47587    
Ga       Ga     0.027500000000     0.547100000000     0.173900000000     3.47587    
Ga       Ga     0.671700000000     0.407400000000     0.864200000000     3.47587    
Ga       Ga     0.853600000000     0.826100000000     0.373200000000     3.47587    
Ga       Ga     0.807500000000     0.135800000000     0.543200000000     3.47587    
P        P      0.463000000000     0.399100000000     0.345700000000     0.857179   
P        P      0.395100000000     0.333500000000     0.685800000000     0.857179   
P        P      0.117300000000     0.654300000000     0.053400000000     0.857179   
P        P      0.709300000000     0.314200000000     0.647700000000     0.857179   
P        P      0.063900000000     0.946600000000     0.600900000000     0.857179   
P        P      0.061600000000     0.352300000000     0.666500000000     0.857179   
P        P      0.537000000000     0.600900000000     0.654300000000     0.857179   
P        P      0.604900000000     0.666500000000     0.314200000000     0.857179   
P        P      0.882700000000     0.345700000000     0.946600000000     0.857179   
P        P      0.290700000000     0.685800000000     0.352300000000     0.857179   
P        P      0.936100000000     0.053400000000     0.399100000000     0.857179   
P        P      0.938400000000     0.647700000000     0.333500000000     0.857179   
H        H      0.716200000000     0.391100000000     0.238500000000     0.0639262  
H        H      0.605500000000     0.349800000000     0.237200000000     0.0639262  
H        H      0.766500000000     0.458600000000     0.540900000000     0.0639262  
H        H      0.861900000000     0.750000000000     0.567200000000     0.0639262  
H        H      0.751000000000     0.701400000000     0.570800000000     0.0639262  
H        H      0.730500000000     0.267200000000     0.283200000000     0.0639262  
H        H      0.661100000000     0.291400000000     0.358900000000     0.0639262  
H        H      0.954900000000     0.575400000000     0.668900000000     0.0639262  
H        H      0.979100000000     0.625500000000     0.594200000000     0.0639262  
H        H      0.866700000000     0.368300000000     0.481800000000     0.0639262  
H        H      0.907100000000     0.450000000000     0.427400000000     0.0639262  
H        H      0.937700000000     0.742000000000     0.712900000000     0.0639262  
H        H      0.811700000000     0.641700000000     0.677000000000     0.0639262  
H        H      0.477700000000     0.761500000000     0.152600000000     0.0639262  
H        H      0.368300000000     0.762800000000     0.112600000000     0.0639262  
H        H      0.225600000000     0.459100000000     0.917700000000     0.0639262  
H        H      0.294700000000     0.432800000000     0.182800000000     0.0639262  
H        H      0.180200000000     0.429200000000     0.130600000000     0.0639262  
H        H      0.447300000000     0.716800000000     0.984000000000     0.0639262  
H        H      0.302200000000     0.641100000000     0.932500000000     0.0639262  
H        H      0.286000000000     0.331100000000     0.906500000000     0.0639262  
H        H      0.384900000000     0.405800000000     0.031300000000     0.0639262  
H        H      0.384900000000     0.518200000000     0.886500000000     0.0639262  
H        H      0.479700000000     0.572600000000     0.022600000000     0.0639262  
H        H      0.224800000000     0.287100000000     0.029100000000     0.0639262  
H        H      0.134700000000     0.323000000000     0.964700000000     0.0639262  
H        H      0.325100000000     0.847400000000     0.608900000000     0.0639262  
H        H      0.255700000000     0.887400000000     0.650200000000     0.0639262  
H        H      0.307900000000     0.082300000000     0.541400000000     0.0639262  
H        H      0.111900000000     0.817200000000     0.250000000000     0.0639262  
H        H      0.049600000000     0.869400000000     0.298600000000     0.0639262  
H        H      0.463300000000     0.016000000000     0.732800000000     0.0639262  
H        H      0.369700000000     0.067500000000     0.708600000000     0.0639262  
H        H      0.379500000000     0.093500000000     0.424600000000     0.0639262  
H        H      0.353600000000     0.968700000000     0.374500000000     0.0639262  
H        H      0.498400000000     0.113500000000     0.631700000000     0.0639262  
H        H      0.457100000000     0.977400000000     0.550000000000     0.0639262  
H        H      0.195700000000     0.970900000000     0.258000000000     0.0639262  
H        H      0.170000000000     0.035300000000     0.358300000000     0.0639262  
H        H      0.283800000000     0.608900000000     0.761500000000     0.0639262  
H        H      0.394500000000     0.650200000000     0.762800000000     0.0639262  
H        H      0.233500000000     0.541400000000     0.459100000000     0.0639262  
H        H      0.138100000000     0.250000000000     0.432800000000     0.0639262  
H        H      0.249000000000     0.298600000000     0.429200000000     0.0639262  
H        H      0.269500000000     0.732800000000     0.716800000000     0.0639262  
H        H      0.338900000000     0.708600000000     0.641100000000     0.0639262  
H        H      0.045100000000     0.424600000000     0.331100000000     0.0639262  
H        H      0.020900000000     0.374500000000     0.405800000000     0.0639262  
H        H      0.133300000000     0.631700000000     0.518200000000     0.0639262  
H        H      0.092900000000     0.550000000000     0.572600000000     0.0639262  
H        H      0.062300000000     0.258000000000     0.287100000000     0.0639262  
H        H      0.188300000000     0.358300000000     0.323000000000     0.0639262  
H        H      0.522300000000     0.238500000000     0.847400000000     0.0639262  
H        H      0.631700000000     0.237200000000     0.887400000000     0.0639262  
H        H      0.774400000000     0.540900000000     0.082300000000     0.0639262  
H        H      0.705300000000     0.567200000000     0.817200000000     0.0639262  
H        H      0.819800000000     0.570800000000     0.869400000000     0.0639262  
H        H      0.552700000000     0.283200000000     0.016000000000     0.0639262  
H        H      0.697800000000     0.358900000000     0.067500000000     0.0639262  
H        H      0.714000000000     0.668900000000     0.093500000000     0.0639262  
H        H      0.615100000000     0.594200000000     0.968700000000     0.0639262  
H        H      0.615100000000     0.481800000000     0.113500000000     0.0639262  
H        H      0.520300000000     0.427400000000     0.977400000000     0.0639262  
H        H      0.775200000000     0.712900000000     0.970900000000     0.0639262  
H        H      0.865300000000     0.677000000000     0.035300000000     0.0639262  
H        H      0.674900000000     0.152600000000     0.391100000000     0.0639262  
H        H      0.744300000000     0.112600000000     0.349800000000     0.0639262  
H        H      0.692100000000     0.917700000000     0.458600000000     0.0639262  
H        H      0.888100000000     0.182800000000     0.750000000000     0.0639262  
H        H      0.950400000000     0.130600000000     0.701400000000     0.0639262  
H        H      0.536700000000     0.984000000000     0.267200000000     0.0639262  
H        H      0.630300000000     0.932500000000     0.291400000000     0.0639262  
H        H      0.620500000000     0.906500000000     0.575400000000     0.0639262  
H        H      0.646400000000     0.031300000000     0.625500000000     0.0639262  
H        H      0.501600000000     0.886500000000     0.368300000000     0.0639262  
H        H      0.542900000000     0.022600000000     0.450000000000     0.0639262  
H        H      0.804300000000     0.029100000000     0.742000000000     0.0639262  
H        H      0.830000000000     0.964700000000     0.641700000000     0.0639262  
C        C      0.721900000000     0.323400000000     0.333500000000    -0.0608613  
C        C      0.835700000000     0.403200000000     0.442700000000    -0.0608613  
C        C      0.918100000000     0.593000000000     0.612900000000    -0.0608613  
C        C      0.873100000000     0.673500000000     0.653900000000    -0.0608613  
C        C      0.388400000000     0.666500000000     0.989900000000    -0.0608613  
C        C      0.393000000000     0.557300000000     0.960500000000    -0.0608613  
C        C      0.305200000000     0.387100000000     0.980100000000    -0.0608613  
C        C      0.219200000000     0.346100000000     0.019600000000    -0.0608613  
C        C      0.398500000000     0.010100000000     0.676600000000    -0.0608613  
C        C      0.432500000000     0.039500000000     0.596800000000    -0.0608613  
C        C      0.325100000000     0.019900000000     0.407000000000    -0.0608613  
C        C      0.199600000000     0.980400000000     0.326500000000    -0.0608613  
C        C      0.278100000000     0.676600000000     0.666500000000    -0.0608613  
C        C      0.164300000000     0.596800000000     0.557300000000    -0.0608613  
C        C      0.081900000000     0.407000000000     0.387100000000    -0.0608613  
C        C      0.126900000000     0.326500000000     0.346100000000    -0.0608613  
C        C      0.611600000000     0.333500000000     0.010100000000    -0.0608613  
C        C      0.607000000000     0.442700000000     0.039500000000    -0.0608613  
C        C      0.694800000000     0.612900000000     0.019900000000    -0.0608613  
C        C      0.780800000000     0.653900000000     0.980400000000    -0.0608613  
C        C      0.601500000000     0.989900000000     0.323400000000    -0.0608613  
C        C      0.567500000000     0.960500000000     0.403200000000    -0.0608613  
C        C      0.674900000000     0.980100000000     0.593000000000    -0.0608613  
C        C      0.800400000000     0.019600000000     0.673500000000    -0.0608613  
N        N      0.686700000000     0.387000000000     0.280700000000    -0.550452   
N        N      0.817100000000     0.492000000000     0.511100000000    -0.550452   
N        N      0.808800000000     0.687000000000     0.559700000000    -0.550452   
N        N      0.406000000000     0.719300000000     0.106300000000    -0.550452   
N        N      0.306000000000     0.488900000000     0.980900000000    -0.550452   
N        N      0.249100000000     0.440300000000     0.127300000000    -0.550452   
N        N      0.299700000000     0.893700000000     0.613000000000    -0.550452   
N        N      0.325100000000     0.019100000000     0.508000000000    -0.550452   
N        N      0.121800000000     0.872700000000     0.313000000000    -0.550452   
N        N      0.313300000000     0.613000000000     0.719300000000    -0.550452   
N        N      0.182900000000     0.508000000000     0.488900000000    -0.550452   
N        N      0.191200000000     0.313000000000     0.440300000000    -0.550452   
N        N      0.594000000000     0.280700000000     0.893700000000    -0.550452   
N        N      0.694000000000     0.511100000000     0.019100000000    -0.550452   
N        N      0.750900000000     0.559700000000     0.872700000000    -0.550452   
N        N      0.700300000000     0.106300000000     0.387000000000    -0.550452   
N        N      0.674900000000     0.980900000000     0.492000000000    -0.550452   
N        N      0.878200000000     0.127300000000     0.687000000000    -0.550452   
O        O      0.596300000000     0.476800000000     0.423400000000    -0.950292   
O        O      0.422600000000     0.332000000000     0.403200000000    -0.950292   
O        O      0.402200000000     0.476100000000     0.349700000000    -0.950292   
O        O      0.428700000000     0.322000000000     0.227500000000    -0.950292   
O        O      0.413000000000     0.294900000000     0.580400000000    -0.950292   
O        O      0.305900000000     0.224400000000     0.672500000000    -0.950292   
O        O      0.509600000000     0.391400000000     0.792900000000    -0.950292   
O        O      0.338700000000     0.410300000000     0.688800000000    -0.950292   
O        O      0.172900000000     0.576600000000     0.053400000000    -0.950292   
O        O      0.019400000000     0.596800000000     0.928800000000    -0.950292   
O        O      0.052500000000     0.650300000000     0.126400000000    -0.950292   
O        O      0.201200000000     0.772500000000     0.094500000000    -0.950292   
O        O      0.832600000000     0.419600000000     0.714500000000    -0.950292   
O        O      0.633400000000     0.327500000000     0.551900000000    -0.950292   
O        O      0.716700000000     0.207100000000     0.598500000000    -0.950292   
O        O      0.649900000000     0.311200000000     0.721500000000    -0.950292   
O        O      0.119500000000     0.946600000000     0.523200000000    -0.950292   
O        O      0.090600000000     0.071200000000     0.668000000000    -0.950292   
O        O      0.926100000000     0.873600000000     0.523900000000    -0.950292   
O        O      0.106700000000     0.905500000000     0.678000000000    -0.950292   
O        O      0.118100000000     0.285500000000     0.705100000000    -0.950292   
O        O      0.081500000000     0.448100000000     0.775600000000    -0.950292   
O        O      0.118200000000     0.401500000000     0.608600000000    -0.950292   
O        O      0.928400000000     0.278500000000     0.589700000000    -0.950292   
O        O      0.403700000000     0.523200000000     0.576600000000    -0.950292   
O        O      0.577400000000     0.668000000000     0.596800000000    -0.950292   
O        O      0.597800000000     0.523900000000     0.650300000000    -0.950292   
O        O      0.571300000000     0.678000000000     0.772500000000    -0.950292   
O        O      0.587000000000     0.705100000000     0.419600000000    -0.950292   
O        O      0.694100000000     0.775600000000     0.327500000000    -0.950292   
O        O      0.490400000000     0.608600000000     0.207100000000    -0.950292   
O        O      0.661300000000     0.589700000000     0.311200000000    -0.950292   
O        O      0.827100000000     0.423400000000     0.946600000000    -0.950292   
O        O      0.980600000000     0.403200000000     0.071200000000    -0.950292   
O        O      0.947500000000     0.349700000000     0.873600000000    -0.950292   
O        O      0.798800000000     0.227500000000     0.905500000000    -0.950292   
O        O      0.167400000000     0.580400000000     0.285500000000    -0.950292   
O        O      0.366600000000     0.672500000000     0.448100000000    -0.950292   
O        O      0.283300000000     0.792900000000     0.401500000000    -0.950292   
O        O      0.350100000000     0.688800000000     0.278500000000    -0.950292   
O        O      0.880500000000     0.053400000000     0.476800000000    -0.950292   
O        O      0.909400000000     0.928800000000     0.332000000000    -0.950292   
O        O      0.073900000000     0.126400000000     0.476100000000    -0.950292   
O        O      0.893300000000     0.094500000000     0.322000000000    -0.950292   
O        O      0.881900000000     0.714500000000     0.294900000000    -0.950292   
O        O      0.918500000000     0.551900000000     0.224400000000    -0.950292   
O        O      0.881800000000     0.598500000000     0.391400000000    -0.950292   
O        O      0.071600000000     0.721500000000     0.410300000000    -0.950292   


