data_MIL-88C-dry_original

_audit_creation_method RASPA-1.0
_audit_creation_date 2022-1-29
_audit_author_name 'Felipe Lopes de Oliveira <felipe.lopes.oliveira@ibm.com>'

_cell_length_a    9.9
_cell_length_b    9.9
_cell_length_c    23.8
_cell_angle_alpha 90
_cell_angle_beta  90
_cell_angle_gamma 120
_cell_volume      2020.12

_symmetry_cell_setting          triclinic
_symmetry_space_group_name_Hall 'P 1'
_symmetry_space_group_name_H-M  'P 1'
_symmetry_Int_Tables_number     1

_symmetry_equiv_pos_as_xyz 'x,y,z'

loop_
_atom_site_label
_atom_site_type_symbol
_atom_site_fract_x
_atom_site_fract_y
_atom_site_fract_z
_atom_site_charge
Fe       Fe     0.654700000000     0.131200000000     0.250000000000     1.14839    
Fe       Fe     0.868800000000     0.523500000000     0.250000000000     1.14839    
Fe       Fe     0.476500000000     0.345300000000     0.250000000000     1.14839    
Fe       Fe     0.131200000000     0.654700000000     0.750000000000     1.14839    
Fe       Fe     0.523500000000     0.868800000000     0.750000000000     1.14839    
Fe       Fe     0.345300000000     0.476500000000     0.750000000000     1.14839    
H        H      0.449300000000     0.207400000000     0.868600000000     0.0482156  
H        H      0.792600000000     0.241900000000     0.868600000000     0.0482156  
H        H      0.758100000000     0.550700000000     0.868600000000     0.0482156  
H        H      0.449300000000     0.207400000000     0.631400000000     0.0482156  
H        H      0.792600000000     0.241900000000     0.631400000000     0.0482156  
H        H      0.758100000000     0.550700000000     0.631400000000     0.0482156  
H        H      0.207400000000     0.449300000000     0.131400000000     0.0482156  
H        H      0.241900000000     0.792600000000     0.131400000000     0.0482156  
H        H      0.550700000000     0.758100000000     0.131400000000     0.0482156  
H        H      0.207400000000     0.449300000000     0.368600000000     0.0482156  
H        H      0.241900000000     0.792600000000     0.368600000000     0.0482156  
H        H      0.550700000000     0.758100000000     0.368600000000     0.0482156  
H        H      0.478500000000     0.307400000000     0.965100000000     0.0482156  
H        H      0.692600000000     0.171100000000     0.965100000000     0.0482156  
H        H      0.828900000000     0.521500000000     0.965100000000     0.0482156  
H        H      0.478500000000     0.307400000000     0.534900000000     0.0482156  
H        H      0.692600000000     0.171100000000     0.534900000000     0.0482156  
H        H      0.828900000000     0.521500000000     0.534900000000     0.0482156  
H        H      0.307400000000     0.478500000000     0.034900000000     0.0482156  
H        H      0.171100000000     0.692600000000     0.034900000000     0.0482156  
H        H      0.521500000000     0.828900000000     0.034900000000     0.0482156  
H        H      0.307400000000     0.478500000000     0.465100000000     0.0482156  
H        H      0.171100000000     0.692600000000     0.465100000000     0.0482156  
H        H      0.521500000000     0.828900000000     0.465100000000     0.0482156  
H        H      0.201000000000     0.736600000000     0.931400000000     0.0482156  
H        H      0.263400000000     0.464400000000     0.931400000000     0.0482156  
H        H      0.535600000000     0.799000000000     0.931400000000     0.0482156  
H        H      0.201000000000     0.736600000000     0.568600000000     0.0482156  
H        H      0.263400000000     0.464400000000     0.568600000000     0.0482156  
H        H      0.535600000000     0.799000000000     0.568600000000     0.0482156  
H        H      0.736600000000     0.201000000000     0.068600000000     0.0482156  
H        H      0.464400000000     0.263400000000     0.068600000000     0.0482156  
H        H      0.799000000000     0.535600000000     0.068600000000     0.0482156  
H        H      0.736600000000     0.201000000000     0.431400000000     0.0482156  
H        H      0.464400000000     0.263400000000     0.431400000000     0.0482156  
H        H      0.799000000000     0.535600000000     0.431400000000     0.0482156  
C        C      0.418500000000     0.097800000000     0.166700000000     0.0461773  
C        C      0.902200000000     0.320700000000     0.166700000000     0.0461773  
C        C      0.679300000000     0.581500000000     0.166700000000     0.0461773  
C        C      0.418500000000     0.097800000000     0.333300000000     0.0461773  
C        C      0.902200000000     0.320700000000     0.333300000000     0.0461773  
C        C      0.679300000000     0.581500000000     0.333300000000     0.0461773  
C        C      0.097800000000     0.418500000000     0.833300000000     0.0461773  
C        C      0.320700000000     0.902200000000     0.833300000000     0.0461773  
C        C      0.581500000000     0.679300000000     0.833300000000     0.0461773  
C        C      0.097800000000     0.418500000000     0.666700000000     0.0461773  
C        C      0.320700000000     0.902200000000     0.666700000000     0.0461773  
C        C      0.581500000000     0.679300000000     0.666700000000     0.0461773  
C        C      0.320800000000     0.963900000000     0.891800000000     0.0461773  
C        C      0.036100000000     0.356900000000     0.891800000000     0.0461773  
C        C      0.643100000000     0.679200000000     0.891800000000     0.0461773  
C        C      0.320800000000     0.963900000000     0.608200000000     0.0461773  
C        C      0.036100000000     0.356900000000     0.608200000000     0.0461773  
C        C      0.643100000000     0.679200000000     0.608200000000     0.0461773  
C        C      0.963900000000     0.320800000000     0.108200000000     0.0461773  
C        C      0.356900000000     0.036100000000     0.108200000000     0.0461773  
C        C      0.679200000000     0.643100000000     0.108200000000     0.0461773  
C        C      0.963900000000     0.320800000000     0.391800000000     0.0461773  
C        C      0.356900000000     0.036100000000     0.391800000000     0.0461773  
C        C      0.679200000000     0.643100000000     0.391800000000     0.0461773  
C        C      0.399700000000     0.125200000000     0.903000000000     0.0461773  
C        C      0.874800000000     0.274500000000     0.903000000000     0.0461773  
C        C      0.725500000000     0.600300000000     0.903000000000     0.0461773  
C        C      0.399700000000     0.125200000000     0.597000000000     0.0461773  
C        C      0.874800000000     0.274500000000     0.597000000000     0.0461773  
C        C      0.725500000000     0.600300000000     0.597000000000     0.0461773  
C        C      0.125200000000     0.399700000000     0.097000000000     0.0461773  
C        C      0.274500000000     0.874800000000     0.097000000000     0.0461773  
C        C      0.600300000000     0.725500000000     0.097000000000     0.0461773  
C        C      0.125200000000     0.399700000000     0.403000000000     0.0461773  
C        C      0.274500000000     0.874800000000     0.403000000000     0.0461773  
C        C      0.600300000000     0.725500000000     0.403000000000     0.0461773  
C        C      0.417800000000     0.182700000000     0.958500000000     0.0461773  
C        C      0.817300000000     0.235100000000     0.958500000000     0.0461773  
C        C      0.764900000000     0.582200000000     0.958500000000     0.0461773  
C        C      0.417800000000     0.182700000000     0.541500000000     0.0461773  
C        C      0.817300000000     0.235100000000     0.541500000000     0.0461773  
C        C      0.764900000000     0.582200000000     0.541500000000     0.0461773  
C        C      0.182700000000     0.417800000000     0.041500000000     0.0461773  
C        C      0.235100000000     0.817300000000     0.041500000000     0.0461773  
C        C      0.582200000000     0.764900000000     0.041500000000     0.0461773  
C        C      0.182700000000     0.417800000000     0.458500000000     0.0461773  
C        C      0.235100000000     0.817300000000     0.458500000000     0.0461773  
C        C      0.582200000000     0.764900000000     0.458500000000     0.0461773  
C        C      0.365200000000     0.081100000000     0.005100000000     0.0461773  
C        C      0.918900000000     0.284100000000     0.005100000000     0.0461773  
C        C      0.715900000000     0.634800000000     0.005100000000     0.0461773  
C        C      0.365200000000     0.081100000000     0.494900000000     0.0461773  
C        C      0.918900000000     0.284100000000     0.494900000000     0.0461773  
C        C      0.715900000000     0.634800000000     0.494900000000     0.0461773  
C        C      0.081100000000     0.365200000000     0.994900000000     0.0461773  
C        C      0.284100000000     0.918900000000     0.994900000000     0.0461773  
C        C      0.634800000000     0.715900000000     0.994900000000     0.0461773  
C        C      0.081100000000     0.365200000000     0.505100000000     0.0461773  
C        C      0.284100000000     0.918900000000     0.505100000000     0.0461773  
C        C      0.634800000000     0.715900000000     0.505100000000     0.0461773  
C        C      0.259600000000     0.861300000000     0.938600000000     0.0461773  
C        C      0.138700000000     0.398300000000     0.938600000000     0.0461773  
C        C      0.601700000000     0.740400000000     0.938600000000     0.0461773  
C        C      0.259600000000     0.861300000000     0.561400000000     0.0461773  
C        C      0.138700000000     0.398300000000     0.561400000000     0.0461773  
C        C      0.601700000000     0.740400000000     0.561400000000     0.0461773  
C        C      0.861300000000     0.259600000000     0.061400000000     0.0461773  
C        C      0.398300000000     0.138700000000     0.061400000000     0.0461773  
C        C      0.740400000000     0.601700000000     0.061400000000     0.0461773  
C        C      0.861300000000     0.259600000000     0.438600000000     0.0461773  
C        C      0.398300000000     0.138700000000     0.438600000000     0.0461773  
C        C      0.740400000000     0.601700000000     0.438600000000     0.0461773  
O        O      0.389800000000     0.197700000000     0.189300000000    -0.373465   
O        O      0.802300000000     0.192100000000     0.189300000000    -0.373465   
O        O      0.807900000000     0.610200000000     0.189300000000    -0.373465   
O        O      0.389800000000     0.197700000000     0.310700000000    -0.373465   
O        O      0.802300000000     0.192100000000     0.310700000000    -0.373465   
O        O      0.807900000000     0.610200000000     0.310700000000    -0.373465   
O        O      0.197700000000     0.389800000000     0.810700000000    -0.373465   
O        O      0.192100000000     0.802300000000     0.810700000000    -0.373465   
O        O      0.610200000000     0.807900000000     0.810700000000    -0.373465   
O        O      0.197700000000     0.389800000000     0.689300000000    -0.373465   
O        O      0.192100000000     0.802300000000     0.689300000000    -0.373465   
O        O      0.610200000000     0.807900000000     0.689300000000    -0.373465   
O        O      0.504600000000     0.053200000000     0.190600000000    -0.373465   
O        O      0.946800000000     0.451400000000     0.190600000000    -0.373465   
O        O      0.548600000000     0.495400000000     0.190600000000    -0.373465   
O        O      0.504600000000     0.053200000000     0.309400000000    -0.373465   
O        O      0.946800000000     0.451400000000     0.309400000000    -0.373465   
O        O      0.548600000000     0.495400000000     0.309400000000    -0.373465   
O        O      0.053200000000     0.504600000000     0.809400000000    -0.373465   
O        O      0.451400000000     0.946800000000     0.809400000000    -0.373465   
O        O      0.495400000000     0.548600000000     0.809400000000    -0.373465   
O        O      0.053200000000     0.504600000000     0.690600000000    -0.373465   
O        O      0.451400000000     0.946800000000     0.690600000000    -0.373465   
O        O      0.495400000000     0.548600000000     0.690600000000    -0.373465   
O        O      0.066300000000     0.711400000000     0.250000000000    -0.373465   
O        O      0.288600000000     0.354900000000     0.250000000000    -0.373465   
O        O      0.645100000000     0.933700000000     0.250000000000    -0.373465   
O        O      0.711400000000     0.066300000000     0.750000000000    -0.373465   
O        O      0.354900000000     0.288600000000     0.750000000000    -0.373465   
O        O      0.933700000000     0.645100000000     0.750000000000    -0.373465   
O        O      0.666700000000     0.333300000000     0.250000000000    -0.373465   
O        O      0.333300000000     0.666700000000     0.750000000000    -0.373465   


