data_MIL-88A-open_original

_audit_creation_method RASPA-1.0
_audit_creation_date 2022-1-29
_audit_author_name 'Felipe Lopes de Oliveira <felipe.lopes.oliveira@ibm.com>'

_cell_length_a    12.663
_cell_length_b    13.8711
_cell_length_c    13.8711
_cell_angle_alpha 120
_cell_angle_beta  90
_cell_angle_gamma 90
_cell_volume      2110.03

_symmetry_cell_setting          triclinic
_symmetry_space_group_name_Hall 'P 1'
_symmetry_space_group_name_H-M  'P 1'
_symmetry_Int_Tables_number     1

_symmetry_equiv_pos_as_xyz 'x,y,z'

loop_
_atom_site_label
_atom_site_type_symbol
_atom_site_fract_x
_atom_site_fract_y
_atom_site_fract_z
_atom_site_charge
Fe       Fe     0.250000000000     0.748461000000     0.251578000000     1.15447    
Fe       Fe     0.250000000000     0.748422000000     0.496883000000     1.15447    
Fe       Fe     0.250000000000     0.503117000000     0.251539000000     1.15447    
Fe       Fe     0.750000000000     0.251578000000     0.748461000000     1.15447    
Fe       Fe     0.750000000000     0.496883000000     0.748422000000     1.15447    
Fe       Fe     0.750000000000     0.251539000000     0.503117000000     1.15447    
H        H      0.097748000000     0.463105000000     0.926205000000     0.0832039  
H        H      0.097748000000     0.073795000000     0.536900000000     0.0832039  
H        H      0.097748000000     0.463100000000     0.536895000000     0.0832039  
H        H      0.402252000000     0.463105000000     0.926205000000     0.0832039  
H        H      0.402252000000     0.073795000000     0.536900000000     0.0832039  
H        H      0.402252000000     0.463100000000     0.536895000000     0.0832039  
H        H      0.902252000000     0.926205000000     0.463106000000     0.0832039  
H        H      0.902252000000     0.536900000000     0.073795000000     0.0832039  
H        H      0.902252000000     0.536895000000     0.463100000000     0.0832039  
H        H      0.597748000000     0.926205000000     0.463106000000     0.0832039  
H        H      0.597748000000     0.536900000000     0.073795000000     0.0832039  
H        H      0.597748000000     0.536895000000     0.463100000000     0.0832039  
C        C      0.114300000000     0.554817000000     0.109572000000     0.159798   
C        C      0.114300000000     0.890428000000     0.445245000000     0.159798   
C        C      0.114300000000     0.554755000000     0.445183000000     0.159798   
C        C      0.385700000000     0.554817000000     0.109572000000     0.159798   
C        C      0.385700000000     0.890428000000     0.445245000000     0.159798   
C        C      0.385700000000     0.554755000000     0.445183000000     0.159798   
C        C      0.885700000000     0.109572000000     0.554817000000     0.159798   
C        C      0.885700000000     0.445245000000     0.890428000000     0.159798   
C        C      0.885700000000     0.445183000000     0.554755000000     0.159798   
C        C      0.614300000000     0.109572000000     0.554817000000     0.159798   
C        C      0.614300000000     0.445245000000     0.890428000000     0.159798   
C        C      0.614300000000     0.445183000000     0.554755000000     0.159798   
C        C      0.052879000000     0.501505000000     0.002960000000     0.159798   
C        C      0.052879000000     0.997040000000     0.498545000000     0.159798   
C        C      0.052879000000     0.501455000000     0.498495000000     0.159798   
C        C      0.447121000000     0.501505000000     0.002960000000     0.159798   
C        C      0.447121000000     0.997040000000     0.498545000000     0.159798   
C        C      0.447121000000     0.501455000000     0.498495000000     0.159798   
C        C      0.947121000000     0.002960000000     0.501505000000     0.159798   
C        C      0.947121000000     0.498545000000     0.997040000000     0.159798   
C        C      0.947121000000     0.498495000000     0.501455000000     0.159798   
C        C      0.552879000000     0.002960000000     0.501505000000     0.159798   
C        C      0.552879000000     0.498545000000     0.997040000000     0.159798   
C        C      0.552879000000     0.498495000000     0.501455000000     0.159798   
O        O      0.250000000000     0.666667000000     0.333333000000    -0.367512   
O        O      0.750000000000     0.333333000000     0.666667000000    -0.367512   
O        O      0.143952000000     0.494020000000     0.149382000000    -0.367512   
O        O      0.143952000000     0.850618000000     0.344638000000    -0.367512   
O        O      0.143952000000     0.655362000000     0.505980000000    -0.367512   
O        O      0.356048000000     0.494020000000     0.149382000000    -0.367512   
O        O      0.356048000000     0.850618000000     0.344638000000    -0.367512   
O        O      0.356048000000     0.655362000000     0.505980000000    -0.367512   
O        O      0.856048000000     0.149382000000     0.494020000000    -0.367512   
O        O      0.856048000000     0.344638000000     0.850618000000    -0.367512   
O        O      0.856048000000     0.505980000000     0.655362000000    -0.367512   
O        O      0.643952000000     0.149382000000     0.494020000000    -0.367512   
O        O      0.643952000000     0.344638000000     0.850618000000    -0.367512   
O        O      0.643952000000     0.505980000000     0.655362000000    -0.367512   
O        O      0.143950000000     0.655426000000     0.149388000000    -0.367512   
O        O      0.143950000000     0.850612000000     0.506038000000    -0.367512   
O        O      0.143950000000     0.493962000000     0.344574000000    -0.367512   
O        O      0.356050000000     0.655426000000     0.149388000000    -0.367512   
O        O      0.356050000000     0.850612000000     0.506038000000    -0.367512   
O        O      0.356050000000     0.493962000000     0.344574000000    -0.367512   
O        O      0.856050000000     0.149388000000     0.655426000000    -0.367512   
O        O      0.856050000000     0.506038000000     0.850612000000    -0.367512   
O        O      0.856050000000     0.344574000000     0.493962000000    -0.367512   
O        O      0.643950000000     0.149388000000     0.655426000000    -0.367512   
O        O      0.643950000000     0.506038000000     0.850612000000    -0.367512   
O        O      0.643950000000     0.344574000000     0.493962000000    -0.367512   
O        O      0.250000000000     0.827939000000     0.172225000000    -0.367512   
O        O      0.250000000000     0.827775000000     0.655714000000    -0.367512   
O        O      0.250000000000     0.344286000000     0.172061000000    -0.367512   
O        O      0.750000000000     0.172225000000     0.827939000000    -0.367512   
O        O      0.750000000000     0.655714000000     0.827775000000    -0.367512   
O        O      0.750000000000     0.172061000000     0.344286000000    -0.367512   


