data_MIMVEJ_original

_audit_creation_method RASPA-1.0
_audit_creation_date 2022-1-31
_audit_author_name 'Felipe Lopes de Oliveira <felipe.lopes.oliveira@ibm.com>'

_cell_length_a    6.9183
_cell_length_b    15.4887
_cell_length_c    15.4887
_cell_angle_alpha 87.141
_cell_angle_beta  77.0951
_cell_angle_gamma 77.0951
_cell_volume      1576.92

_symmetry_cell_setting          triclinic
_symmetry_space_group_name_Hall 'P 1'
_symmetry_space_group_name_H-M  'P 1'
_symmetry_Int_Tables_number     1

_symmetry_equiv_pos_as_xyz 'x,y,z'

loop_
_atom_site_label
_atom_site_type_symbol
_atom_site_fract_x
_atom_site_fract_y
_atom_site_fract_z
_atom_site_charge
Zn       Zn     0.125000000000     0.760770000000     0.739230000000     0.422749   
Zn       Zn     0.625000000000     0.239230000000     0.260770000000     0.422749   
Zn       Zn     0.135770000000     0.739230000000     0.239230000000     0.422749   
Zn       Zn     0.114230000000     0.260770000000     0.760770000000     0.422749   
H        H      0.573800000000     0.737500000000     0.152500000000     0.047709   
H        H      0.776600000000     0.747400000000     0.011200000000     0.047709   
H        H      0.636900000000     0.752100000000     0.887500000000     0.047709   
H        H      0.097200000000     0.745500000000     0.050900000000     0.047709   
H        H      0.463800000000     0.262500000000     0.847500000000     0.047709   
H        H      0.535200000000     0.252600000000     0.988800000000     0.047709   
H        H      0.276500000000     0.247900000000     0.112500000000     0.047709   
H        H      0.893600000000     0.254500000000     0.949100000000     0.047709   
H        H      0.273700000000     0.152500000000     0.262500000000     0.047709   
H        H      0.212200000000     0.011200000000     0.252600000000     0.047709   
H        H      0.475600000000     0.887500000000     0.247900000000     0.047709   
H        H      0.851900000000     0.050900000000     0.254500000000     0.047709   
H        H      0.688700000000     0.847500000000     0.737500000000     0.047709   
H        H      0.476000000000     0.988800000000     0.747400000000     0.047709   
H        H      0.611000000000     0.112500000000     0.752100000000     0.047709   
H        H      0.157300000000     0.949100000000     0.745500000000     0.047709   
H        H      0.786200000000     0.652500000000     0.237500000000     0.047709   
H        H      0.714800000000     0.511200000000     0.247400000000     0.047709   
H        H      0.973500000000     0.387500000000     0.252100000000     0.047709   
H        H      0.356400000000     0.550900000000     0.245500000000     0.047709   
H        H      0.676200000000     0.347500000000     0.762500000000     0.047709   
H        H      0.473400000000     0.488800000000     0.752600000000     0.047709   
H        H      0.613100000000     0.612500000000     0.747900000000     0.047709   
H        H      0.152800000000     0.449100000000     0.754500000000     0.047709   
H        H      0.561300000000     0.762500000000     0.652500000000     0.047709   
H        H      0.774000000000     0.752600000000     0.511200000000     0.047709   
H        H      0.639000000000     0.747900000000     0.387500000000     0.047709   
H        H      0.092700000000     0.754500000000     0.550900000000     0.047709   
H        H      0.976300000000     0.237500000000     0.347500000000     0.047709   
H        H      0.037800000000     0.247400000000     0.488800000000     0.047709   
H        H      0.774400000000     0.252100000000     0.612500000000     0.047709   
H        H      0.398100000000     0.245500000000     0.449100000000     0.047709   
C        C      0.514300000000     0.741700000000     0.102500000000     0.0515013  
C        C      0.637100000000     0.746700000000     0.017900000000     0.0515013  
C        C      0.554500000000     0.750400000000     0.945200000000     0.0515013  
C        C      0.348000000000     0.751700000000     0.956300000000     0.0515013  
C        C      0.237000000000     0.746500000000     0.042500000000     0.0515013  
C        C      0.247300000000     0.758100000000     0.880900000000     0.0515013  
C        C      0.358500000000     0.258300000000     0.897500000000     0.0515013  
C        C      0.401700000000     0.253300000000     0.982100000000     0.0515013  
C        C      0.250100000000     0.249600000000     0.054800000000     0.0515013  
C        C      0.056000000000     0.248300000000     0.043700000000     0.0515013  
C        C      0.026000000000     0.253500000000     0.957500000000     0.0515013  
C        C      0.886300000000     0.241900000000     0.119100000000     0.0515013  
C        C      0.383200000000     0.102500000000     0.258300000000     0.0515013  
C        C      0.345000000000     0.017900000000     0.253300000000     0.0515013  
C        C      0.500300000000     0.945200000000     0.249600000000     0.0515013  
C        C      0.695700000000     0.956300000000     0.248300000000     0.0515013  
C        C      0.720500000000     0.042500000000     0.253500000000     0.0515013  
C        C      0.871800000000     0.880900000000     0.241900000000     0.0515013  
C        C      0.744000000000     0.897500000000     0.741700000000     0.0515013  
C        C      0.616200000000     0.982100000000     0.746700000000     0.0515013  
C        C      0.695100000000     0.054800000000     0.750400000000     0.0515013  
C        C      0.900300000000     0.043700000000     0.751700000000     0.0515013  
C        C      0.016500000000     0.957500000000     0.746500000000     0.0515013  
C        C      0.994600000000     0.119100000000     0.758100000000     0.0515013  
C        C      0.891500000000     0.602500000000     0.241700000000     0.0515013  
C        C      0.848300000000     0.517900000000     0.246700000000     0.0515013  
C        C      0.999900000000     0.445200000000     0.250400000000     0.0515013  
C        C      0.194000000000     0.456300000000     0.251700000000     0.0515013  
C        C      0.224000000000     0.542500000000     0.246500000000     0.0515013  
C        C      0.363700000000     0.380900000000     0.258100000000     0.0515013  
C        C      0.735700000000     0.397500000000     0.758300000000     0.0515013  
C        C      0.612900000000     0.482100000000     0.753300000000     0.0515013  
C        C      0.695500000000     0.554800000000     0.749600000000     0.0515013  
C        C      0.902000000000     0.543700000000     0.748300000000     0.0515013  
C        C      0.013000000000     0.457500000000     0.753500000000     0.0515013  
C        C      0.002700000000     0.619100000000     0.741900000000     0.0515013  
C        C      0.506000000000     0.758300000000     0.602500000000     0.0515013  
C        C      0.633800000000     0.753300000000     0.517900000000     0.0515013  
C        C      0.554900000000     0.749600000000     0.445200000000     0.0515013  
C        C      0.349700000000     0.748300000000     0.456300000000     0.0515013  
C        C      0.233500000000     0.753500000000     0.542500000000     0.0515013  
C        C      0.255400000000     0.741900000000     0.380900000000     0.0515013  
C        C      0.866800000000     0.241700000000     0.397500000000     0.0515013  
C        C      0.905000000000     0.246700000000     0.482100000000     0.0515013  
C        C      0.749700000000     0.250400000000     0.554800000000     0.0515013  
C        C      0.554300000000     0.251700000000     0.543700000000     0.0515013  
C        C      0.529500000000     0.246500000000     0.457500000000     0.0515013  
C        C      0.378200000000     0.258100000000     0.619100000000     0.0515013  
N        N      0.316700000000     0.742700000000     0.114700000000    -0.159414   
N        N      0.174100000000     0.257300000000     0.885300000000    -0.159414   
N        N      0.568600000000     0.114700000000     0.257300000000    -0.159414   
N        N      0.940600000000     0.885300000000     0.742700000000    -0.159414   
N        N      0.075900000000     0.614700000000     0.242700000000    -0.159414   
N        N      0.933300000000     0.385300000000     0.757300000000    -0.159414   
N        N      0.309400000000     0.757300000000     0.614700000000    -0.159414   
N        N      0.681400000000     0.242700000000     0.385300000000    -0.159414   
O        O      0.346890000000     0.771610000000     0.804410000000    -0.275902   
O        O      0.065670000000     0.750870000000     0.893990000000    -0.275902   
O        O      0.922910000000     0.228390000000     0.195590000000    -0.275902   
O        O      0.710530000000     0.249130000000     0.106010000000    -0.275902   
O        O      0.848700000000     0.804410000000     0.228390000000    -0.275902   
O        O      0.040340000000     0.893990000000     0.249130000000    -0.275902   
O        O      0.881500000000     0.195590000000     0.771610000000    -0.275902   
O        O      0.183460000000     0.106010000000     0.750870000000    -0.275902   
O        O      0.327090000000     0.304410000000     0.271610000000    -0.275902   
O        O      0.539470000000     0.393990000000     0.250870000000    -0.275902   
O        O      0.903110000000     0.695590000000     0.728390000000    -0.275902   
O        O      0.184330000000     0.606010000000     0.749130000000    -0.275902   
O        O      0.368500000000     0.728390000000     0.304410000000    -0.275902   
O        O      0.066540000000     0.749130000000     0.393990000000    -0.275902   
O        O      0.401300000000     0.271610000000     0.695590000000    -0.275902   
O        O      0.209660000000     0.250870000000     0.606010000000    -0.275902   


