data_MIZJUB_original

_audit_creation_method RASPA-1.0
_audit_creation_date 2022-1-29
_audit_author_name 'Felipe Lopes de Oliveira <felipe.lopes.oliveira@ibm.com>'

_cell_length_a    12.2422
_cell_length_b    19.391
_cell_length_c    21.9419
_cell_angle_alpha 90
_cell_angle_beta  100.862
_cell_angle_gamma 90
_cell_volume      5115.43

_symmetry_cell_setting          triclinic
_symmetry_space_group_name_Hall 'P 1'
_symmetry_space_group_name_H-M  'P 1'
_symmetry_Int_Tables_number     1

_symmetry_equiv_pos_as_xyz 'x,y,z'

loop_
_atom_site_label
_atom_site_type_symbol
_atom_site_fract_x
_atom_site_fract_y
_atom_site_fract_z
_atom_site_charge
Zn       Zn     0.321730000000     0.723550000000     0.373290000000     0.450859   
Zn       Zn     0.191940000000     0.751030000000     0.629850000000     0.450859   
Zn       Zn     0.178270000000     0.223550000000     0.126710000000     0.450859   
Zn       Zn     0.308060000000     0.251030000000     0.870150000000     0.450859   
Zn       Zn     0.678270000000     0.276450000000     0.626710000000     0.450859   
Zn       Zn     0.808060000000     0.248970000000     0.370150000000     0.450859   
Zn       Zn     0.821730000000     0.776450000000     0.873290000000     0.450859   
Zn       Zn     0.691940000000     0.748970000000     0.129850000000     0.450859   
H        H      0.126900000000     0.420200000000     0.285500000000     0.116472   
H        H      0.179400000000     0.532700000000     0.316500000000     0.116472   
H        H      0.124300000000     0.072100000000     0.790400000000     0.116472   
H        H      0.085200000000     0.957900000000     0.759800000000     0.116472   
H        H      0.749000000000     0.722800000000     0.603200000000     0.116472   
H        H      0.586800000000     0.719500000000     0.527300000000     0.116472   
H        H      0.379300000000     0.602900000000     0.166800000000     0.116472   
H        H      0.376300000000     0.539800000000     0.127900000000     0.116472   
H        H      0.367200000000     0.914400000000     0.644100000000     0.116472   
H        H      0.425500000000     0.982100000000     0.648400000000     0.116472   
H        H      0.724900000000     0.710000000000     0.343100000000     0.116472   
H        H      0.847500000000     0.717900000000     0.362900000000     0.116472   
H        H      0.286800000000     0.443300000000     0.139900000000     0.116472   
H        H      0.383300000000     0.073000000000     0.700200000000     0.116472   
H        H      0.932800000000     0.731300000000     0.465500000000     0.116472   
H        H      0.373100000000     0.920200000000     0.214500000000     0.116472   
H        H      0.320600000000     0.032700000000     0.183500000000     0.116472   
H        H      0.375700000000     0.572100000000     0.709600000000     0.116472   
H        H      0.414800000000     0.457900000000     0.740200000000     0.116472   
H        H      0.751000000000     0.222800000000     0.896800000000     0.116472   
H        H      0.913200000000     0.219500000000     0.972700000000     0.116472   
H        H      0.120700000000     0.102900000000     0.333200000000     0.116472   
H        H      0.123700000000     0.039800000000     0.372100000000     0.116472   
H        H      0.132800000000     0.414400000000     0.855900000000     0.116472   
H        H      0.074500000000     0.482100000000     0.851600000000     0.116472   
H        H      0.775100000000     0.210000000000     0.156900000000     0.116472   
H        H      0.652500000000     0.217900000000     0.137100000000     0.116472   
H        H      0.213200000000     0.943300000000     0.360100000000     0.116472   
H        H      0.116700000000     0.573000000000     0.799800000000     0.116472   
H        H      0.567200000000     0.231300000000     0.034500000000     0.116472   
H        H      0.873100000000     0.579800000000     0.714500000000     0.116472   
H        H      0.820600000000     0.467300000000     0.683500000000     0.116472   
H        H      0.875700000000     0.927900000000     0.209600000000     0.116472   
H        H      0.914800000000     0.042100000000     0.240200000000     0.116472   
H        H      0.251000000000     0.277200000000     0.396800000000     0.116472   
H        H      0.413200000000     0.280500000000     0.472700000000     0.116472   
H        H      0.620700000000     0.397100000000     0.833200000000     0.116472   
H        H      0.623700000000     0.460200000000     0.872100000000     0.116472   
H        H      0.632800000000     0.085600000000     0.355900000000     0.116472   
H        H      0.574500000000     0.017900000000     0.351600000000     0.116472   
H        H      0.275100000000     0.290000000000     0.656900000000     0.116472   
H        H      0.152500000000     0.282100000000     0.637100000000     0.116472   
H        H      0.713200000000     0.556700000000     0.860100000000     0.116472   
H        H      0.616700000000     0.927000000000     0.299800000000     0.116472   
H        H      0.067200000000     0.268700000000     0.534500000000     0.116472   
H        H      0.626900000000     0.079800000000     0.785500000000     0.116472   
H        H      0.679400000000     0.967300000000     0.816500000000     0.116472   
H        H      0.624300000000     0.427900000000     0.290400000000     0.116472   
H        H      0.585200000000     0.542100000000     0.259800000000     0.116472   
H        H      0.249000000000     0.777200000000     0.103200000000     0.116472   
H        H      0.086800000000     0.780500000000     0.027300000000     0.116472   
H        H      0.879300000000     0.897100000000     0.666800000000     0.116472   
H        H      0.876300000000     0.960200000000     0.627900000000     0.116472   
H        H      0.867200000000     0.585600000000     0.144100000000     0.116472   
H        H      0.925500000000     0.517900000000     0.148400000000     0.116472   
H        H      0.224900000000     0.790000000000     0.843100000000     0.116472   
H        H      0.347500000000     0.782100000000     0.862900000000     0.116472   
H        H      0.786800000000     0.056700000000     0.639900000000     0.116472   
H        H      0.883300000000     0.427000000000     0.200200000000     0.116472   
H        H      0.432800000000     0.768700000000     0.965500000000     0.116472   
C        C      0.303600000000     0.624900000000     0.273700000000     0.0625071  
C        C      0.266900000000     0.554000000000     0.249800000000     0.0625071  
C        C      0.300700000000     0.527300000000     0.196800000000     0.0625071  
C        C      0.268400000000     0.459000000000     0.178200000000     0.0625071  
C        C      0.207000000000     0.419600000000     0.211000000000     0.0625071  
C        C      0.173200000000     0.447400000000     0.263600000000     0.0625071  
C        C      0.204500000000     0.513500000000     0.281200000000     0.0625071  
C        C      0.176700000000     0.346500000000     0.193400000000     0.0625071  
C        C      0.181700000000     0.872900000000     0.692900000000     0.0625071  
C        C      0.209000000000     0.947200000000     0.709900000000     0.0625071  
C        C      0.297400000000     0.980700000000     0.692600000000     0.0625071  
C        C      0.323600000000     0.047600000000     0.712900000000     0.0625071  
C        C      0.259600000000     0.081300000000     0.750100000000     0.0625071  
C        C      0.170100000000     0.048500000000     0.766100000000     0.0625071  
C        C      0.145800000000     0.981500000000     0.746800000000     0.0625071  
C        C      0.294000000000     0.150800000000     0.775200000000     0.0625071  
C        C      0.554900000000     0.716700000000     0.406200000000     0.0625071  
C        C      0.662100000000     0.718400000000     0.452100000000     0.0625071  
C        C      0.764000000000     0.720700000000     0.433400000000     0.0625071  
C        C      0.863300000000     0.727000000000     0.479600000000     0.0625071  
C        C      0.856100000000     0.728500000000     0.541800000000     0.0625071  
C        C      0.753600000000     0.724000000000     0.560000000000     0.0625071  
C        C      0.657900000000     0.720300000000     0.514800000000     0.0625071  
C        C      0.960700000000     0.735600000000     0.590200000000     0.0625071  
C        C      0.196400000000     0.124900000000     0.226300000000     0.0625071  
C        C      0.233100000000     0.054000000000     0.250200000000     0.0625071  
C        C      0.199300000000     0.027300000000     0.303200000000     0.0625071  
C        C      0.231600000000     0.959000000000     0.321800000000     0.0625071  
C        C      0.293000000000     0.919600000000     0.289000000000     0.0625071  
C        C      0.326800000000     0.947400000000     0.236400000000     0.0625071  
C        C      0.295500000000     0.013500000000     0.218800000000     0.0625071  
C        C      0.323300000000     0.846500000000     0.306600000000     0.0625071  
C        C      0.318300000000     0.372900000000     0.807100000000     0.0625071  
C        C      0.291000000000     0.447200000000     0.790100000000     0.0625071  
C        C      0.202600000000     0.480700000000     0.807400000000     0.0625071  
C        C      0.176400000000     0.547600000000     0.787100000000     0.0625071  
C        C      0.240400000000     0.581300000000     0.749900000000     0.0625071  
C        C      0.329900000000     0.548500000000     0.733900000000     0.0625071  
C        C      0.354200000000     0.481500000000     0.753200000000     0.0625071  
C        C      0.206000000000     0.650800000000     0.724800000000     0.0625071  
C        C      0.945100000000     0.216700000000     0.093800000000     0.0625071  
C        C      0.837900000000     0.218400000000     0.047900000000     0.0625071  
C        C      0.736000000000     0.220700000000     0.066600000000     0.0625071  
C        C      0.636700000000     0.227000000000     0.020400000000     0.0625071  
C        C      0.643900000000     0.228500000000     0.958200000000     0.0625071  
C        C      0.746400000000     0.224000000000     0.940000000000     0.0625071  
C        C      0.842100000000     0.220300000000     0.985200000000     0.0625071  
C        C      0.539300000000     0.235600000000     0.909800000000     0.0625071  
C        C      0.696400000000     0.375100000000     0.726300000000     0.0625071  
C        C      0.733100000000     0.446000000000     0.750200000000     0.0625071  
C        C      0.699300000000     0.472700000000     0.803200000000     0.0625071  
C        C      0.731600000000     0.541000000000     0.821800000000     0.0625071  
C        C      0.793000000000     0.580400000000     0.789000000000     0.0625071  
C        C      0.826800000000     0.552600000000     0.736400000000     0.0625071  
C        C      0.795500000000     0.486500000000     0.718800000000     0.0625071  
C        C      0.823300000000     0.653500000000     0.806600000000     0.0625071  
C        C      0.818300000000     0.127100000000     0.307100000000     0.0625071  
C        C      0.791000000000     0.052800000000     0.290100000000     0.0625071  
C        C      0.702600000000     0.019300000000     0.307400000000     0.0625071  
C        C      0.676400000000     0.952400000000     0.287100000000     0.0625071  
C        C      0.740400000000     0.918700000000     0.249900000000     0.0625071  
C        C      0.829900000000     0.951500000000     0.233900000000     0.0625071  
C        C      0.854200000000     0.018500000000     0.253200000000     0.0625071  
C        C      0.706000000000     0.849200000000     0.224800000000     0.0625071  
C        C      0.445100000000     0.283300000000     0.593800000000     0.0625071  
C        C      0.337900000000     0.281600000000     0.547900000000     0.0625071  
C        C      0.236000000000     0.279300000000     0.566600000000     0.0625071  
C        C      0.136700000000     0.273000000000     0.520400000000     0.0625071  
C        C      0.143900000000     0.271500000000     0.458200000000     0.0625071  
C        C      0.246400000000     0.276000000000     0.440000000000     0.0625071  
C        C      0.342100000000     0.279700000000     0.485200000000     0.0625071  
C        C      0.039300000000     0.264400000000     0.409800000000     0.0625071  
C        C      0.803600000000     0.875100000000     0.773700000000     0.0625071  
C        C      0.766900000000     0.946000000000     0.749800000000     0.0625071  
C        C      0.800700000000     0.972700000000     0.696800000000     0.0625071  
C        C      0.768400000000     0.041000000000     0.678200000000     0.0625071  
C        C      0.707000000000     0.080400000000     0.711000000000     0.0625071  
C        C      0.673200000000     0.052600000000     0.763600000000     0.0625071  
C        C      0.704500000000     0.986500000000     0.781200000000     0.0625071  
C        C      0.676700000000     0.153500000000     0.693400000000     0.0625071  
C        C      0.681700000000     0.627100000000     0.192900000000     0.0625071  
C        C      0.709000000000     0.552800000000     0.209900000000     0.0625071  
C        C      0.797400000000     0.519300000000     0.192600000000     0.0625071  
C        C      0.823600000000     0.452400000000     0.212900000000     0.0625071  
C        C      0.759600000000     0.418700000000     0.250100000000     0.0625071  
C        C      0.670100000000     0.451500000000     0.266100000000     0.0625071  
C        C      0.645800000000     0.518500000000     0.246800000000     0.0625071  
C        C      0.794000000000     0.349200000000     0.275200000000     0.0625071  
C        C      0.054900000000     0.783300000000     0.906200000000     0.0625071  
C        C      0.162100000000     0.781600000000     0.952100000000     0.0625071  
C        C      0.264000000000     0.779300000000     0.933400000000     0.0625071  
C        C      0.363300000000     0.773000000000     0.979600000000     0.0625071  
C        C      0.356100000000     0.771500000000     0.041800000000     0.0625071  
C        C      0.253600000000     0.776000000000     0.060000000000     0.0625071  
C        C      0.157900000000     0.779700000000     0.014800000000     0.0625071  
C        C      0.460700000000     0.764400000000     0.090200000000     0.0625071  
N        N      0.358700000000     0.560900000000     0.159100000000    -0.347596   
N        N      0.372700000000     0.956500000000     0.656500000000    -0.347596   
N        N      0.782200000000     0.715800000000     0.372000000000    -0.347596   
N        N      0.141300000000     0.060900000000     0.340900000000    -0.347596   
N        N      0.127300000000     0.456500000000     0.843500000000    -0.347596   
N        N      0.717800000000     0.215800000000     0.128000000000    -0.347596   
N        N      0.641300000000     0.439100000000     0.840900000000    -0.347596   
N        N      0.627300000000     0.043500000000     0.343500000000    -0.347596   
N        N      0.217800000000     0.284200000000     0.628000000000    -0.347596   
N        N      0.858700000000     0.939100000000     0.659100000000    -0.347596   
N        N      0.872700000000     0.543500000000     0.156500000000    -0.347596   
N        N      0.282200000000     0.784200000000     0.872000000000    -0.347596   
O        O      0.359000000000     0.660100000000     0.243500000000    -0.258848   
O        O      0.274300000000     0.643100000000     0.323500000000    -0.258848   
O        O      0.111200000000     0.316300000000     0.220400000000    -0.258848   
O        O      0.216800000000     0.319000000000     0.151300000000    -0.258848   
O        O      0.230800000000     0.845700000000     0.654000000000    -0.258848   
O        O      0.109400000000     0.843900000000     0.716300000000    -0.258848   
O        O      0.359700000000     0.185500000000     0.750000000000    -0.258848   
O        O      0.253900000000     0.172300000000     0.819700000000    -0.258848   
O        O      0.558200000000     0.710900000000     0.349500000000    -0.258848   
O        O      0.467600000000     0.720000000000     0.427100000000    -0.258848   
O        O      0.951900000000     0.735600000000     0.646100000000    -0.258848   
O        O      0.051600000000     0.738600000000     0.572900000000    -0.258848   
O        O      0.141000000000     0.160100000000     0.256500000000    -0.258848   
O        O      0.225700000000     0.143100000000     0.176500000000    -0.258848   
O        O      0.388800000000     0.816300000000     0.279600000000    -0.258848   
O        O      0.283200000000     0.819000000000     0.348700000000    -0.258848   
O        O      0.269200000000     0.345700000000     0.846000000000    -0.258848   
O        O      0.390600000000     0.343900000000     0.783700000000    -0.258848   
O        O      0.140300000000     0.685500000000     0.750000000000    -0.258848   
O        O      0.246100000000     0.672300000000     0.680300000000    -0.258848   
O        O      0.941800000000     0.210900000000     0.150500000000    -0.258848   
O        O      0.032400000000     0.220000000000     0.072900000000    -0.258848   
O        O      0.548100000000     0.235600000000     0.853900000000    -0.258848   
O        O      0.448400000000     0.238600000000     0.927100000000    -0.258848   
O        O      0.641000000000     0.339900000000     0.756500000000    -0.258848   
O        O      0.725700000000     0.356900000000     0.676500000000    -0.258848   
O        O      0.888800000000     0.683700000000     0.779600000000    -0.258848   
O        O      0.783200000000     0.681000000000     0.848700000000    -0.258848   
O        O      0.769200000000     0.154300000000     0.346000000000    -0.258848   
O        O      0.890600000000     0.156100000000     0.283700000000    -0.258848   
O        O      0.640300000000     0.814500000000     0.250000000000    -0.258848   
O        O      0.746100000000     0.827700000000     0.180300000000    -0.258848   
O        O      0.441800000000     0.289100000000     0.650500000000    -0.258848   
O        O      0.532400000000     0.280000000000     0.572900000000    -0.258848   
O        O      0.048100000000     0.264400000000     0.353900000000    -0.258848   
O        O      0.948400000000     0.261400000000     0.427100000000    -0.258848   
O        O      0.859000000000     0.839900000000     0.743500000000    -0.258848   
O        O      0.774300000000     0.856900000000     0.823500000000    -0.258848   
O        O      0.611200000000     0.183700000000     0.720400000000    -0.258848   
O        O      0.716800000000     0.181000000000     0.651300000000    -0.258848   
O        O      0.730800000000     0.654300000000     0.154000000000    -0.258848   
O        O      0.609400000000     0.656100000000     0.216300000000    -0.258848   
O        O      0.859700000000     0.314500000000     0.250000000000    -0.258848   
O        O      0.753900000000     0.327700000000     0.319700000000    -0.258848   
O        O      0.058200000000     0.789100000000     0.849500000000    -0.258848   
O        O      0.967600000000     0.780000000000     0.927100000000    -0.258848   
O        O      0.451900000000     0.764400000000     0.146100000000    -0.258848   
O        O      0.551600000000     0.761400000000     0.072900000000    -0.258848   


