data_MOF-1-Dybtsev-dmol_original

_audit_creation_method RASPA-1.0
_audit_creation_date 2022-1-28
_audit_author_name 'Felipe Lopes de Oliveira <felipe.lopes.oliveira@ibm.com>'

_cell_length_a    10.9288
_cell_length_b    10.9288
_cell_length_c    9.6084
_cell_angle_alpha 90
_cell_angle_beta  90
_cell_angle_gamma 90
_cell_volume      1147.61

_symmetry_cell_setting          triclinic
_symmetry_space_group_name_Hall 'P 1'
_symmetry_space_group_name_H-M  'P 1'
_symmetry_Int_Tables_number     1

_symmetry_equiv_pos_as_xyz 'x,y,z'

loop_
_atom_site_label
_atom_site_type_symbol
_atom_site_fract_x
_atom_site_fract_y
_atom_site_fract_z
_atom_site_charge
Zn       Zn     0.487740000000     0.512070000000     0.147730000000     0.443786   
Zn       Zn     0.487740000000     0.512080000000     0.852260000000     0.443786   
H        H      0.525640000000     0.328030000000     0.376720000000     0.046631   
H        H      0.629240000000     0.644500000000     0.375380000000     0.046631   
H        H      0.304090000000     0.575610000000     0.375730000000     0.046631   
H        H      0.414140000000     0.693660000000     0.624420000000     0.046631   
H        H      0.368820000000     0.363880000000     0.624040000000     0.046631   
H        H      0.676430000000     0.490430000000     0.623170000000     0.046631   
H        H      0.628720000000     0.645050000000     0.624200000000     0.046631   
H        H      0.526250000000     0.328190000000     0.622970000000     0.046631   
H        H      0.303890000000     0.574970000000     0.623870000000     0.046631   
H        H      0.414810000000     0.693880000000     0.375930000000     0.046631   
H        H      0.676320000000     0.489720000000     0.377230000000     0.046631   
H        H      0.368330000000     0.364250000000     0.376300000000     0.046631   
H        H      0.102680000000     0.513610000000     0.776600000000     0.046631   
H        H      0.872160000000     0.498980000000     0.776620000000     0.046631   
H        H      0.483000000000     0.127570000000     0.776550000000     0.046631   
H        H      0.497830000000     0.897020000000     0.776550000000     0.046631   
H        H      0.872160000000     0.499010000000     0.223450000000     0.046631   
H        H      0.102680000000     0.513650000000     0.223470000000     0.046631   
H        H      0.482900000000     0.127560000000     0.223410000000     0.046631   
H        H      0.497750000000     0.896990000000     0.223390000000     0.046631   
C        C      0.249860000000     0.522890000000     0.000030000000     0.0328154  
C        C      0.114150000000     0.515070000000     0.000040000000     0.0328154  
C        C      0.724670000000     0.494900000000     0.000050000000     0.0328154  
C        C      0.860650000000     0.498070000000     0.000040000000     0.0328154  
C        C      0.475070000000     0.274840000000     0.999970000000     0.0328154  
C        C      0.481610000000     0.139030000000     0.999980000000     0.0328154  
C        C      0.503340000000     0.749610000000     0.999950000000     0.0328154  
C        C      0.498810000000     0.885520000000     0.999970000000     0.0328154  
C        C      0.050770000000     0.510520000000     0.873520000000     0.0328154  
C        C      0.924080000000     0.501720000000     0.873550000000     0.0328154  
C        C      0.485960000000     0.075640000000     0.873460000000     0.0328154  
C        C      0.494870000000     0.948960000000     0.873460000000     0.0328154  
C        C      0.924080000000     0.501740000000     0.126530000000     0.0328154  
C        C      0.050770000000     0.510540000000     0.126550000000     0.0328154  
C        C      0.485910000000     0.075640000000     0.126490000000     0.0328154  
C        C      0.494830000000     0.948940000000     0.126480000000     0.0328154  
C        C      0.457390000000     0.391310000000     0.419870000000     0.0328154  
C        C      0.608720000000     0.553940000000     0.419760000000     0.0328154  
C        C      0.392670000000     0.603510000000     0.419650000000     0.0328154  
C        C      0.392470000000     0.603310000000     0.580330000000     0.0328154  
C        C      0.457640000000     0.391260000000     0.580140000000     0.0328154  
C        C      0.608630000000     0.554240000000     0.580200000000     0.0328154  
N        N      0.486350000000     0.515990000000     0.366860000000    -0.115091   
N        N      0.486340000000     0.516010000000     0.633130000000    -0.115091   
O        O      0.672460000000     0.494770000000     0.881790000000    -0.288994   
O        O      0.301980000000     0.525430000000     0.881710000000    -0.288994   
O        O      0.473260000000     0.326970000000     0.881720000000    -0.288994   
O        O      0.504230000000     0.697450000000     0.881560000000    -0.288994   
O        O      0.301980000000     0.525510000000     0.118350000000    -0.288994   
O        O      0.672470000000     0.494690000000     0.118310000000    -0.288994   
O        O      0.504320000000     0.697420000000     0.118320000000    -0.288994   
O        O      0.473170000000     0.326990000000     0.118210000000    -0.288994   


