data_MOF-69_original

_audit_creation_method RASPA-1.0
_audit_creation_date 2022-1-29
_audit_author_name 'Felipe Lopes de Oliveira <felipe.lopes.oliveira@ibm.com>'

_cell_length_a    14.848
_cell_length_b    17.664
_cell_length_c    18.129
_cell_angle_alpha 112.14
_cell_angle_beta  90
_cell_angle_gamma 90
_cell_volume      4404.19

_symmetry_cell_setting          triclinic
_symmetry_space_group_name_Hall 'P 1'
_symmetry_space_group_name_H-M  'P 1'
_symmetry_Int_Tables_number     1

_symmetry_equiv_pos_as_xyz 'x,y,z'

loop_
_atom_site_label
_atom_site_type_symbol
_atom_site_fract_x
_atom_site_fract_y
_atom_site_fract_z
_atom_site_charge
Zn       Zn     0.901800000000     0.997370000000     0.833620000000     0.521517   
Zn       Zn     0.401800000000     0.502630000000     0.666380000000     0.521517   
Zn       Zn     0.098200000000     0.002630000000     0.166380000000     0.521517   
Zn       Zn     0.598200000000     0.497370000000     0.333620000000     0.521517   
Zn       Zn     0.095500000000     0.002140000000     0.833160000000     0.521517   
Zn       Zn     0.595500000000     0.497860000000     0.666840000000     0.521517   
Zn       Zn     0.904500000000     0.997860000000     0.166840000000     0.521517   
Zn       Zn     0.404500000000     0.502140000000     0.333160000000     0.521517   
Zn       Zn     0.996190000000     0.999620000000     0.665620000000     0.521517   
Zn       Zn     0.496190000000     0.500380000000     0.834380000000     0.521517   
Zn       Zn     0.003810000000     0.000380000000     0.334380000000     0.521517   
Zn       Zn     0.503810000000     0.499620000000     0.165620000000     0.521517   
Zn       Zn     0.098470000000     0.003540000000     0.504950000000     0.521517   
Zn       Zn     0.598470000000     0.496460000000     0.995050000000     0.521517   
Zn       Zn     0.901530000000     0.996460000000     0.495050000000     0.521517   
Zn       Zn     0.401530000000     0.503540000000     0.004950000000     0.521517   
Zn       Zn     0.000000000000     0.000000000000     0.000000000000     0.521517   
Zn       Zn     0.500000000000     0.500000000000     0.500000000000     0.521517   
H        H      0.000700000000     0.909900000000     0.864100000000     0.125114   
H        H      0.500700000000     0.590100000000     0.635900000000     0.125114   
H        H      0.999300000000     0.090100000000     0.135900000000     0.125114   
H        H      0.499300000000     0.409900000000     0.364100000000     0.125114   
H        H      0.994000000000     0.093300000000     0.804500000000     0.125114   
H        H      0.494000000000     0.406700000000     0.695500000000     0.125114   
H        H      0.006000000000     0.906700000000     0.195500000000     0.125114   
H        H      0.506000000000     0.593300000000     0.304500000000     0.125114   
H        H      0.000400000000     0.908000000000     0.528000000000     0.125114   
H        H      0.500400000000     0.592000000000     0.972000000000     0.125114   
H        H      0.999600000000     0.092000000000     0.472000000000     0.125114   
H        H      0.499600000000     0.408000000000     0.028000000000     0.125114   
H        H      0.612000000000     0.717800000000     0.624500000000     0.125114   
H        H      0.112000000000     0.782200000000     0.875500000000     0.125114   
H        H      0.388000000000     0.282200000000     0.375500000000     0.125114   
H        H      0.888000000000     0.217800000000     0.124500000000     0.125114   
H        H      0.802800000000     0.672200000000     0.453500000000     0.125114   
H        H      0.302800000000     0.827800000000     0.046500000000     0.125114   
H        H      0.197200000000     0.327800000000     0.546500000000     0.125114   
H        H      0.697200000000     0.172200000000     0.953500000000     0.125114   
H        H      0.700500000000     0.823100000000     0.710900000000     0.125114   
H        H      0.200500000000     0.676900000000     0.789100000000     0.125114   
H        H      0.299500000000     0.176900000000     0.289100000000     0.125114   
H        H      0.799500000000     0.323100000000     0.210900000000     0.125114   
H        H      0.891600000000     0.777600000000     0.539800000000     0.125114   
H        H      0.391600000000     0.722400000000     0.960200000000     0.125114   
H        H      0.108400000000     0.222400000000     0.460200000000     0.125114   
H        H      0.608400000000     0.277600000000     0.039800000000     0.125114   
H        H      0.180900000000     0.168300000000     0.136700000000     0.125114   
H        H      0.680900000000     0.331700000000     0.363300000000     0.125114   
H        H      0.819100000000     0.831700000000     0.863300000000     0.125114   
H        H      0.319100000000     0.668300000000     0.636700000000     0.125114   
H        H      0.247900000000     0.717700000000     0.444000000000     0.125114   
H        H      0.747900000000     0.782300000000     0.056000000000     0.125114   
H        H      0.752100000000     0.282300000000     0.556000000000     0.125114   
H        H      0.252100000000     0.217700000000     0.944000000000     0.125114   
H        H      0.251800000000     0.789500000000     0.719600000000     0.125114   
H        H      0.751800000000     0.710500000000     0.780400000000     0.125114   
H        H      0.748200000000     0.210500000000     0.280400000000     0.125114   
H        H      0.248200000000     0.289500000000     0.219600000000     0.125114   
H        H      0.180900000000     0.839800000000     0.526700000000     0.125114   
H        H      0.680900000000     0.660200000000     0.973300000000     0.125114   
H        H      0.819100000000     0.160200000000     0.473300000000     0.125114   
H        H      0.319100000000     0.339800000000     0.026700000000     0.125114   
H        H      0.248800000000     0.721900000000     0.118500000000     0.125114   
H        H      0.748800000000     0.778100000000     0.381500000000     0.125114   
H        H      0.751200000000     0.278100000000     0.881500000000     0.125114   
H        H      0.251200000000     0.221900000000     0.618500000000     0.125114   
H        H      0.405000000000     0.724400000000     0.302300000000     0.125114   
H        H      0.905000000000     0.775600000000     0.197700000000     0.125114   
H        H      0.595000000000     0.275600000000     0.697700000000     0.125114   
H        H      0.095000000000     0.224400000000     0.802300000000     0.125114   
H        H      0.173200000000     0.837800000000     0.202800000000     0.125114   
H        H      0.673200000000     0.662200000000     0.297200000000     0.125114   
H        H      0.826800000000     0.162200000000     0.797200000000     0.125114   
H        H      0.326800000000     0.337800000000     0.702800000000     0.125114   
H        H      0.322800000000     0.835300000000     0.388600000000     0.125114   
H        H      0.822800000000     0.664700000000     0.111400000000     0.125114   
H        H      0.677200000000     0.164700000000     0.611400000000     0.125114   
H        H      0.177200000000     0.335300000000     0.888600000000     0.125114   
C        C      0.856890000000     0.116260000000     0.976020000000     0.0563511  
C        C      0.356890000000     0.383740000000     0.523980000000     0.0563511  
C        C      0.143110000000     0.883740000000     0.023980000000     0.0563511  
C        C      0.643110000000     0.616260000000     0.476020000000     0.0563511  
C        C      0.699570000000     0.684420000000     0.530910000000     0.0563511  
C        C      0.199570000000     0.815580000000     0.969090000000     0.0563511  
C        C      0.300430000000     0.315580000000     0.469090000000     0.0563511  
C        C      0.800430000000     0.184420000000     0.030910000000     0.0563511  
C        C      0.668880000000     0.729720000000     0.607440000000     0.0563511  
C        C      0.168880000000     0.770280000000     0.892560000000     0.0563511  
C        C      0.331120000000     0.270280000000     0.392560000000     0.0563511  
C        C      0.831120000000     0.229720000000     0.107440000000     0.0563511  
C        C      0.782250000000     0.702760000000     0.506010000000     0.0563511  
C        C      0.282250000000     0.797240000000     0.993990000000     0.0563511  
C        C      0.217750000000     0.297240000000     0.493990000000     0.0563511  
C        C      0.717750000000     0.202760000000     0.006010000000     0.0563511  
C        C      0.721430000000     0.792150000000     0.658670000000     0.0563511  
C        C      0.221430000000     0.707850000000     0.841330000000     0.0563511  
C        C      0.278570000000     0.207850000000     0.341330000000     0.0563511  
C        C      0.778570000000     0.292150000000     0.158670000000     0.0563511  
C        C      0.835080000000     0.765260000000     0.557120000000     0.0563511  
C        C      0.335080000000     0.734740000000     0.942880000000     0.0563511  
C        C      0.164920000000     0.234740000000     0.442880000000     0.0563511  
C        C      0.664920000000     0.265260000000     0.057120000000     0.0563511  
C        C      0.804920000000     0.809660000000     0.633870000000     0.0563511  
C        C      0.304920000000     0.690340000000     0.866130000000     0.0563511  
C        C      0.195080000000     0.190340000000     0.366130000000     0.0563511  
C        C      0.695080000000     0.309660000000     0.133870000000     0.0563511  
C        C      0.861790000000     0.876880000000     0.689490000000     0.0563511  
C        C      0.361790000000     0.623120000000     0.810510000000     0.0563511  
C        C      0.138210000000     0.123120000000     0.310510000000     0.0563511  
C        C      0.638210000000     0.376880000000     0.189490000000     0.0563511  
C        C      0.163550000000     0.104670000000     0.979390000000     0.0563511  
C        C      0.663550000000     0.395330000000     0.520610000000     0.0563511  
C        C      0.836450000000     0.895330000000     0.020610000000     0.0563511  
C        C      0.336450000000     0.604670000000     0.479390000000     0.0563511  
C        C      0.209760000000     0.181440000000     0.032380000000     0.0563511  
C        C      0.709760000000     0.318560000000     0.467620000000     0.0563511  
C        C      0.790240000000     0.818560000000     0.967620000000     0.0563511  
C        C      0.290240000000     0.681440000000     0.532380000000     0.0563511  
C        C      0.208940000000     0.203050000000     0.114360000000     0.0563511  
C        C      0.708940000000     0.296950000000     0.385640000000     0.0563511  
C        C      0.791060000000     0.796950000000     0.885640000000     0.0563511  
C        C      0.291060000000     0.703050000000     0.614360000000     0.0563511  
C        C      0.248810000000     0.732600000000     0.500060000000     0.0563511  
C        C      0.748810000000     0.767400000000     0.999940000000     0.0563511  
C        C      0.751190000000     0.267400000000     0.499940000000     0.0563511  
C        C      0.251190000000     0.232600000000     0.000060000000     0.0563511  
C        C      0.251220000000     0.775020000000     0.663490000000     0.0563511  
C        C      0.751220000000     0.724980000000     0.836510000000     0.0563511  
C        C      0.748780000000     0.224980000000     0.336510000000     0.0563511  
C        C      0.248780000000     0.275020000000     0.163490000000     0.0563511  
C        C      0.208930000000     0.805000000000     0.549050000000     0.0563511  
C        C      0.708930000000     0.695000000000     0.950950000000     0.0563511  
C        C      0.791070000000     0.195000000000     0.450950000000     0.0563511  
C        C      0.291070000000     0.305000000000     0.049050000000     0.0563511  
C        C      0.210040000000     0.826550000000     0.631120000000     0.0563511  
C        C      0.710040000000     0.673450000000     0.868880000000     0.0563511  
C        C      0.789960000000     0.173450000000     0.368880000000     0.0563511  
C        C      0.289960000000     0.326550000000     0.131120000000     0.0563511  
C        C      0.164010000000     0.903030000000     0.684380000000     0.0563511  
C        C      0.664010000000     0.596970000000     0.815620000000     0.0563511  
C        C      0.835990000000     0.096970000000     0.315620000000     0.0563511  
C        C      0.335990000000     0.403030000000     0.184380000000     0.0563511  
C        C      0.121370000000     0.133700000000     0.648970000000     0.0563511  
C        C      0.621370000000     0.366300000000     0.851030000000     0.0563511  
C        C      0.878630000000     0.866300000000     0.351030000000     0.0563511  
C        C      0.378630000000     0.633700000000     0.148970000000     0.0563511  
C        C      0.167180000000     0.210800000000     0.702390000000     0.0563511  
C        C      0.667180000000     0.289200000000     0.797610000000     0.0563511  
C        C      0.832820000000     0.789200000000     0.297610000000     0.0563511  
C        C      0.332820000000     0.710800000000     0.202390000000     0.0563511  
C        C      0.264340000000     0.745240000000     0.173320000000     0.0563511  
C        C      0.764340000000     0.754760000000     0.326680000000     0.0563511  
C        C      0.735660000000     0.254760000000     0.826680000000     0.0563511  
C        C      0.235660000000     0.245240000000     0.673320000000     0.0563511  
C        C      0.356180000000     0.745980000000     0.282530000000     0.0563511  
C        C      0.856180000000     0.754020000000     0.217470000000     0.0563511  
C        C      0.643820000000     0.254020000000     0.717470000000     0.0563511  
C        C      0.143820000000     0.245980000000     0.782530000000     0.0563511  
C        C      0.218480000000     0.813410000000     0.223570000000     0.0563511  
C        C      0.718480000000     0.686590000000     0.276430000000     0.0563511  
C        C      0.781520000000     0.186590000000     0.776430000000     0.0563511  
C        C      0.281520000000     0.313410000000     0.723570000000     0.0563511  
C        C      0.308100000000     0.812620000000     0.333580000000     0.0563511  
C        C      0.808100000000     0.687380000000     0.166420000000     0.0563511  
C        C      0.691900000000     0.187380000000     0.666420000000     0.0563511  
C        C      0.191900000000     0.312620000000     0.833580000000     0.0563511  
C        C      0.238640000000     0.846280000000     0.304500000000     0.0563511  
C        C      0.738640000000     0.653720000000     0.195500000000     0.0563511  
C        C      0.761360000000     0.153720000000     0.695500000000     0.0563511  
C        C      0.261360000000     0.346280000000     0.804500000000     0.0563511  
C        C      0.180810000000     0.914530000000     0.358760000000     0.0563511  
C        C      0.680810000000     0.585470000000     0.141240000000     0.0563511  
C        C      0.819190000000     0.085470000000     0.641240000000     0.0563511  
C        C      0.319190000000     0.414530000000     0.858760000000     0.0563511  
O        O      0.001910000000     0.952020000000     0.878480000000    -0.37173    
O        O      0.501910000000     0.547980000000     0.621520000000    -0.37173    
O        O      0.998090000000     0.047980000000     0.121520000000    -0.37173    
O        O      0.498090000000     0.452020000000     0.378480000000    -0.37173    
O        O      0.996850000000     0.047480000000     0.787960000000    -0.37173    
O        O      0.496850000000     0.452520000000     0.712040000000    -0.37173    
O        O      0.003150000000     0.952520000000     0.212040000000    -0.37173    
O        O      0.503150000000     0.547480000000     0.287960000000    -0.37173    
O        O      0.999070000000     0.951750000000     0.543390000000    -0.37173    
O        O      0.499070000000     0.548250000000     0.956610000000    -0.37173    
O        O      0.000930000000     0.048250000000     0.456610000000    -0.37173    
O        O      0.500930000000     0.451750000000     0.043390000000    -0.37173    
O        O      0.066540000000     0.895430000000     0.001270000000    -0.37173    
O        O      0.566540000000     0.604570000000     0.498730000000    -0.37173    
O        O      0.933460000000     0.104570000000     0.998730000000    -0.37173    
O        O      0.433460000000     0.395430000000     0.501270000000    -0.37173    
O        O      0.823140000000     0.075180000000     0.908630000000    -0.37173    
O        O      0.323140000000     0.424820000000     0.591370000000    -0.37173    
O        O      0.176860000000     0.924820000000     0.091370000000    -0.37173    
O        O      0.676860000000     0.575180000000     0.408630000000    -0.37173    
O        O      0.937890000000     0.890400000000     0.667060000000    -0.37173    
O        O      0.437890000000     0.609600000000     0.832940000000    -0.37173    
O        O      0.062110000000     0.109600000000     0.332940000000    -0.37173    
O        O      0.562110000000     0.390400000000     0.167060000000    -0.37173    
O        O      0.828400000000     0.915250000000     0.757930000000    -0.37173    
O        O      0.328400000000     0.584750000000     0.742070000000    -0.37173    
O        O      0.171600000000     0.084750000000     0.242070000000    -0.37173    
O        O      0.671600000000     0.415250000000     0.257930000000    -0.37173    
O        O      0.126430000000     0.060480000000     0.009810000000    -0.37173    
O        O      0.626430000000     0.439520000000     0.490190000000    -0.37173    
O        O      0.873570000000     0.939520000000     0.990190000000    -0.37173    
O        O      0.373570000000     0.560480000000     0.509810000000    -0.37173    
O        O      0.164960000000     0.090910000000     0.905170000000    -0.37173    
O        O      0.664960000000     0.409090000000     0.594830000000    -0.37173    
O        O      0.835040000000     0.909090000000     0.094830000000    -0.37173    
O        O      0.335040000000     0.590910000000     0.405170000000    -0.37173    
O        O      0.127830000000     0.948710000000     0.655000000000    -0.37173    
O        O      0.627830000000     0.551290000000     0.845000000000    -0.37173    
O        O      0.872170000000     0.051290000000     0.345000000000    -0.37173    
O        O      0.372170000000     0.448710000000     0.155000000000    -0.37173    
O        O      0.164650000000     0.915330000000     0.758210000000    -0.37173    
O        O      0.664650000000     0.584670000000     0.741790000000    -0.37173    
O        O      0.835350000000     0.084670000000     0.241790000000    -0.37173    
O        O      0.335350000000     0.415330000000     0.258210000000    -0.37173    
O        O      0.048730000000     0.113060000000     0.671150000000    -0.37173    
O        O      0.548730000000     0.386940000000     0.828850000000    -0.37173    
O        O      0.951270000000     0.886940000000     0.328850000000    -0.37173    
O        O      0.451270000000     0.613060000000     0.171150000000    -0.37173    
O        O      0.161120000000     0.093910000000     0.583880000000    -0.37173    
O        O      0.661120000000     0.406090000000     0.916120000000    -0.37173    
O        O      0.838880000000     0.906090000000     0.416120000000    -0.37173    
O        O      0.338880000000     0.593910000000     0.083880000000    -0.37173    
O        O      0.865010000000     0.045840000000     0.671330000000    -0.37173    
O        O      0.365010000000     0.454160000000     0.828670000000    -0.37173    
O        O      0.134990000000     0.954160000000     0.328670000000    -0.37173    
O        O      0.634990000000     0.545840000000     0.171330000000    -0.37173    
O        O      0.181380000000     0.925620000000     0.432600000000    -0.37173    
O        O      0.681380000000     0.574380000000     0.067400000000    -0.37173    
O        O      0.818620000000     0.074380000000     0.567400000000    -0.37173    
O        O      0.318620000000     0.425620000000     0.932600000000    -0.37173    


