data_MOGVAG_original

_audit_creation_method RASPA-1.0
_audit_creation_date 2022-1-28
_audit_author_name 'Felipe Lopes de Oliveira <felipe.lopes.oliveira@ibm.com>'

_cell_length_a    7.4267
_cell_length_b    12.9082
_cell_length_c    12.9082
_cell_angle_alpha 87.8549
_cell_angle_beta  85.4656
_cell_angle_gamma 85.4656
_cell_volume      1229.11

_symmetry_cell_setting          triclinic
_symmetry_space_group_name_Hall 'P 1'
_symmetry_space_group_name_H-M  'P 1'
_symmetry_Int_Tables_number     1

_symmetry_equiv_pos_as_xyz 'x,y,z'

loop_
_atom_site_label
_atom_site_type_symbol
_atom_site_fract_x
_atom_site_fract_y
_atom_site_fract_z
_atom_site_charge
Zn       Zn     0.722330000000     0.389860000000     0.213000000000     0.402326   
Zn       Zn     0.277670000000     0.787000000000     0.610140000000     0.402326   
Zn       Zn     0.277670000000     0.610140000000     0.787000000000     0.402326   
Zn       Zn     0.722330000000     0.213000000000     0.389860000000     0.402326   
Zn       Zn     0.500000000000     0.845530000000     0.154470000000     0.402326   
Zn       Zn     0.500000000000     0.154470000000     0.845530000000     0.402326   
Zn       Zn     0.000000000000     0.820750000000     0.179250000000     0.402326   
Zn       Zn     0.000000000000     0.179250000000     0.820750000000     0.402326   
H        H      0.058200000000     0.504000000000     0.268800000000     0.12197    
H        H      0.115700000000     0.608400000000     0.263400000000     0.12197    
H        H      0.938400000000     0.738200000000     0.869400000000     0.12197    
H        H      0.868500000000     0.788800000000     0.963400000000     0.12197    
H        H      0.502900000000     0.593500000000     0.164100000000     0.12197    
H        H      0.513100000000     0.692200000000     0.955000000000     0.12197    
H        H      0.941800000000     0.731200000000     0.496000000000     0.12197    
H        H      0.884300000000     0.736600000000     0.391600000000     0.12197    
H        H      0.061600000000     0.130600000000     0.261800000000     0.12197    
H        H      0.131500000000     0.036600000000     0.211200000000     0.12197    
H        H      0.497100000000     0.835900000000     0.406500000000     0.12197    
H        H      0.486900000000     0.045000000000     0.307800000000     0.12197    
H        H      0.941800000000     0.496000000000     0.731200000000     0.12197    
H        H      0.884300000000     0.391600000000     0.736600000000     0.12197    
H        H      0.061600000000     0.261800000000     0.130600000000     0.12197    
H        H      0.131500000000     0.211200000000     0.036600000000     0.12197    
H        H      0.497100000000     0.406500000000     0.835900000000     0.12197    
H        H      0.486900000000     0.307800000000     0.045000000000     0.12197    
H        H      0.058200000000     0.268800000000     0.504000000000     0.12197    
H        H      0.115700000000     0.263400000000     0.608400000000     0.12197    
H        H      0.938400000000     0.869400000000     0.738200000000     0.12197    
H        H      0.868500000000     0.963400000000     0.788800000000     0.12197    
H        H      0.502900000000     0.164100000000     0.593500000000     0.12197    
H        H      0.513100000000     0.955000000000     0.692200000000     0.12197    
H        H      0.896000000000     0.354700000000     0.354700000000     0.12197    
H        H      0.104000000000     0.645300000000     0.645300000000     0.12197    
C        C      0.618100000000     0.611270000000     0.176350000000     0.169542   
C        C      0.892400000000     0.599740000000     0.210900000000     0.169542   
C        C      0.392300000000     0.713600000000     0.972340000000     0.169542   
C        C      0.108000000000     0.739090000000     0.966410000000     0.169542   
C        C      0.381900000000     0.823650000000     0.388730000000     0.169542   
C        C      0.107600000000     0.789100000000     0.400260000000     0.169542   
C        C      0.607700000000     0.027660000000     0.286400000000     0.169542   
C        C      0.892000000000     0.033590000000     0.260910000000     0.169542   
C        C      0.381900000000     0.388730000000     0.823650000000     0.169542   
C        C      0.107600000000     0.400260000000     0.789100000000     0.169542   
C        C      0.607700000000     0.286400000000     0.027660000000     0.169542   
C        C      0.892000000000     0.260910000000     0.033590000000     0.169542   
C        C      0.618100000000     0.176350000000     0.611270000000     0.169542   
C        C      0.892400000000     0.210900000000     0.599740000000     0.169542   
C        C      0.392300000000     0.972340000000     0.713600000000     0.169542   
C        C      0.108000000000     0.966410000000     0.739090000000     0.169542   
C        C      0.590200000000     0.974030000000     0.974030000000     0.169542   
C        C      0.409800000000     0.025970000000     0.025970000000     0.169542   
S        S      0.351880000000     0.314890000000     0.314890000000     0.676421   
S        S      0.648120000000     0.685110000000     0.685110000000     0.676421   
N        N      0.663000000000     0.706910000000     0.175190000000    -0.196261   
N        N      0.842900000000     0.700330000000     0.198390000000    -0.196261   
N        N      0.756000000000     0.540160000000     0.197120000000    -0.196261   
N        N      0.064000000000     0.561650000000     0.229950000000    -0.196261   
N        N      0.337700000000     0.765650000000     0.055210000000    -0.196261   
N        N      0.150500000000     0.783570000000     0.051570000000    -0.196261   
N        N      0.256300000000     0.693930000000     0.914430000000    -0.196261   
N        N      0.936600000000     0.735320000000     0.937840000000    -0.196261   
N        N      0.337000000000     0.824810000000     0.293090000000    -0.196261   
N        N      0.157100000000     0.801610000000     0.299670000000    -0.196261   
N        N      0.244000000000     0.802880000000     0.459840000000    -0.196261   
N        N      0.936000000000     0.770050000000     0.438350000000    -0.196261   
N        N      0.662300000000     0.944790000000     0.234350000000    -0.196261   
N        N      0.849500000000     0.948430000000     0.216430000000    -0.196261   
N        N      0.743700000000     0.085570000000     0.306070000000    -0.196261   
N        N      0.063400000000     0.062160000000     0.264680000000    -0.196261   
N        N      0.337000000000     0.293090000000     0.824810000000    -0.196261   
N        N      0.157100000000     0.299670000000     0.801610000000    -0.196261   
N        N      0.244000000000     0.459840000000     0.802880000000    -0.196261   
N        N      0.936000000000     0.438350000000     0.770050000000    -0.196261   
N        N      0.662300000000     0.234350000000     0.944790000000    -0.196261   
N        N      0.849500000000     0.216430000000     0.948430000000    -0.196261   
N        N      0.743700000000     0.306070000000     0.085570000000    -0.196261   
N        N      0.063400000000     0.264680000000     0.062160000000    -0.196261   
N        N      0.663000000000     0.175190000000     0.706910000000    -0.196261   
N        N      0.842900000000     0.198390000000     0.700330000000    -0.196261   
N        N      0.756000000000     0.197120000000     0.540160000000    -0.196261   
N        N      0.064000000000     0.229950000000     0.561650000000    -0.196261   
N        N      0.337700000000     0.055210000000     0.765650000000    -0.196261   
N        N      0.150500000000     0.051570000000     0.783570000000    -0.196261   
N        N      0.256300000000     0.914430000000     0.693930000000    -0.196261   
N        N      0.936600000000     0.937840000000     0.735320000000    -0.196261   
O        O      0.461800000000     0.394530000000     0.259730000000    -0.322435   
O        O      0.656100000000     0.892610000000     0.017430000000    -0.322435   
O        O      0.538200000000     0.740270000000     0.605470000000    -0.322435   
O        O      0.343900000000     0.982570000000     0.107390000000    -0.322435   
O        O      0.538200000000     0.605470000000     0.740270000000    -0.322435   
O        O      0.343900000000     0.107390000000     0.982570000000    -0.322435   
O        O      0.461800000000     0.259730000000     0.394530000000    -0.322435   
O        O      0.656100000000     0.017430000000     0.892610000000    -0.322435   
O        O      0.192000000000     0.368480000000     0.368480000000    -0.322435   
O        O      0.302000000000     0.241760000000     0.241760000000    -0.322435   
O        O      0.860100000000     0.312910000000     0.312910000000    -0.322435   
O        O      0.808000000000     0.631520000000     0.631520000000    -0.322435   
O        O      0.698000000000     0.758240000000     0.758240000000    -0.322435   
O        O      0.139900000000     0.687090000000     0.687090000000    -0.322435   


