data_MOYNEU_original

_audit_creation_method RASPA-1.0
_audit_creation_date 2022-1-29
_audit_author_name 'Felipe Lopes de Oliveira <felipe.lopes.oliveira@ibm.com>'

_cell_length_a    11.675
_cell_length_b    16.429
_cell_length_c    20.934
_cell_angle_alpha 90
_cell_angle_beta  90
_cell_angle_gamma 90
_cell_volume      4015.32

_symmetry_cell_setting          triclinic
_symmetry_space_group_name_Hall 'P 1'
_symmetry_space_group_name_H-M  'P 1'
_symmetry_Int_Tables_number     1

_symmetry_equiv_pos_as_xyz 'x,y,z'

loop_
_atom_site_label
_atom_site_type_symbol
_atom_site_fract_x
_atom_site_fract_y
_atom_site_fract_z
_atom_site_charge
Zn       Zn     0.500000000000     0.750000000000     0.326950000000     0.46804    
Zn       Zn     0.000000000000     0.750000000000     0.173050000000     0.46804    
Zn       Zn     0.500000000000     0.250000000000     0.673050000000     0.46804    
Zn       Zn     0.000000000000     0.250000000000     0.826950000000     0.46804    
Zn       Zn     0.750000000000     0.769690000000     0.250000000000     0.46804    
Zn       Zn     0.250000000000     0.730310000000     0.250000000000     0.46804    
Zn       Zn     0.250000000000     0.230310000000     0.750000000000     0.46804    
Zn       Zn     0.750000000000     0.269690000000     0.750000000000     0.46804    
H        H      0.627400000000     0.894100000000     0.479100000000     0.102022   
H        H      0.925200000000     0.798400000000     0.419600000000     0.102022   
H        H      0.025000000000     0.855900000000     0.506700000000     0.102022   
H        H      0.094400000000     0.946800000000     0.603500000000     0.102022   
H        H      0.117400000000     0.042900000000     0.685700000000     0.102022   
H        H      0.779500000000     0.094800000000     0.684400000000     0.102022   
H        H      0.587000000000     0.039100000000     0.525700000000     0.102022   
H        H      0.617500000000     0.095000000000     0.583900000000     0.102022   
H        H      0.768200000000     0.076800000000     0.480200000000     0.102022   
H        H      0.777600000000     0.142800000000     0.534300000000     0.102022   
H        H      0.695800000000     0.203700000000     0.440300000000     0.102022   
H        H      0.605600000000     0.206800000000     0.495700000000     0.102022   
H        H      0.595100000000     0.140700000000     0.442100000000     0.102022   
H        H      0.601900000000     0.987800000000     0.657400000000     0.102022   
H        H      0.564100000000     0.930100000000     0.601700000000     0.102022   
H        H      0.745400000000     0.893000000000     0.684400000000     0.102022   
H        H      0.694700000000     0.833900000000     0.632300000000     0.102022   
H        H      0.604900000000     0.804600000000     0.736400000000     0.102022   
H        H      0.510600000000     0.832900000000     0.687900000000     0.102022   
H        H      0.558300000000     0.894000000000     0.738900000000     0.102022   
H        H      0.372600000000     0.605900000000     0.479100000000     0.102022   
H        H      0.074800000000     0.701600000000     0.419600000000     0.102022   
H        H      0.975000000000     0.644100000000     0.506700000000     0.102022   
H        H      0.905600000000     0.553200000000     0.603500000000     0.102022   
H        H      0.882600000000     0.457100000000     0.685700000000     0.102022   
H        H      0.220500000000     0.405200000000     0.684400000000     0.102022   
H        H      0.413000000000     0.460900000000     0.525700000000     0.102022   
H        H      0.382500000000     0.405000000000     0.583900000000     0.102022   
H        H      0.231800000000     0.423200000000     0.480200000000     0.102022   
H        H      0.222400000000     0.357200000000     0.534300000000     0.102022   
H        H      0.304200000000     0.296300000000     0.440300000000     0.102022   
H        H      0.394400000000     0.293200000000     0.495700000000     0.102022   
H        H      0.404900000000     0.359300000000     0.442100000000     0.102022   
H        H      0.398100000000     0.512200000000     0.657400000000     0.102022   
H        H      0.435900000000     0.569900000000     0.601700000000     0.102022   
H        H      0.254600000000     0.607000000000     0.684400000000     0.102022   
H        H      0.305300000000     0.666100000000     0.632300000000     0.102022   
H        H      0.395100000000     0.695400000000     0.736400000000     0.102022   
H        H      0.489400000000     0.667100000000     0.687900000000     0.102022   
H        H      0.441700000000     0.606000000000     0.738900000000     0.102022   
H        H      0.127400000000     0.605900000000     0.020900000000     0.102022   
H        H      0.425200000000     0.701600000000     0.080400000000     0.102022   
H        H      0.525000000000     0.644100000000     0.993300000000     0.102022   
H        H      0.594400000000     0.553200000000     0.896500000000     0.102022   
H        H      0.617400000000     0.457100000000     0.814300000000     0.102022   
H        H      0.279500000000     0.405200000000     0.815600000000     0.102022   
H        H      0.087000000000     0.460900000000     0.974300000000     0.102022   
H        H      0.117500000000     0.405000000000     0.916100000000     0.102022   
H        H      0.268200000000     0.423200000000     0.019800000000     0.102022   
H        H      0.277600000000     0.357200000000     0.965700000000     0.102022   
H        H      0.195800000000     0.296300000000     0.059700000000     0.102022   
H        H      0.105600000000     0.293200000000     0.004300000000     0.102022   
H        H      0.095100000000     0.359300000000     0.057900000000     0.102022   
H        H      0.101900000000     0.512200000000     0.842600000000     0.102022   
H        H      0.064100000000     0.569900000000     0.898300000000     0.102022   
H        H      0.245400000000     0.607000000000     0.815600000000     0.102022   
H        H      0.194700000000     0.666100000000     0.867700000000     0.102022   
H        H      0.104900000000     0.695400000000     0.763600000000     0.102022   
H        H      0.010600000000     0.667100000000     0.812100000000     0.102022   
H        H      0.058300000000     0.606000000000     0.761100000000     0.102022   
H        H      0.872600000000     0.894100000000     0.020900000000     0.102022   
H        H      0.574800000000     0.798400000000     0.080400000000     0.102022   
H        H      0.475000000000     0.855900000000     0.993300000000     0.102022   
H        H      0.405600000000     0.946800000000     0.896500000000     0.102022   
H        H      0.382600000000     0.042900000000     0.814300000000     0.102022   
H        H      0.720500000000     0.094800000000     0.815600000000     0.102022   
H        H      0.913000000000     0.039100000000     0.974300000000     0.102022   
H        H      0.882500000000     0.095000000000     0.916100000000     0.102022   
H        H      0.731800000000     0.076800000000     0.019800000000     0.102022   
H        H      0.722400000000     0.142800000000     0.965700000000     0.102022   
H        H      0.804200000000     0.203700000000     0.059700000000     0.102022   
H        H      0.894400000000     0.206800000000     0.004300000000     0.102022   
H        H      0.904900000000     0.140700000000     0.057900000000     0.102022   
H        H      0.898100000000     0.987800000000     0.842600000000     0.102022   
H        H      0.935900000000     0.930100000000     0.898300000000     0.102022   
H        H      0.754600000000     0.893000000000     0.815600000000     0.102022   
H        H      0.805300000000     0.833900000000     0.867700000000     0.102022   
H        H      0.895100000000     0.804600000000     0.763600000000     0.102022   
H        H      0.989400000000     0.832900000000     0.812100000000     0.102022   
H        H      0.941700000000     0.894000000000     0.761100000000     0.102022   
H        H      0.372600000000     0.105900000000     0.520900000000     0.102022   
H        H      0.074800000000     0.201600000000     0.580400000000     0.102022   
H        H      0.975000000000     0.144100000000     0.493300000000     0.102022   
H        H      0.905600000000     0.053200000000     0.396500000000     0.102022   
H        H      0.882600000000     0.957100000000     0.314300000000     0.102022   
H        H      0.220500000000     0.905200000000     0.315600000000     0.102022   
H        H      0.413000000000     0.960900000000     0.474300000000     0.102022   
H        H      0.382500000000     0.905000000000     0.416100000000     0.102022   
H        H      0.231800000000     0.923200000000     0.519800000000     0.102022   
H        H      0.222400000000     0.857200000000     0.465700000000     0.102022   
H        H      0.304200000000     0.796300000000     0.559700000000     0.102022   
H        H      0.394400000000     0.793200000000     0.504300000000     0.102022   
H        H      0.404900000000     0.859300000000     0.557900000000     0.102022   
H        H      0.398100000000     0.012200000000     0.342600000000     0.102022   
H        H      0.435900000000     0.069900000000     0.398300000000     0.102022   
H        H      0.254600000000     0.107000000000     0.315600000000     0.102022   
H        H      0.305300000000     0.166100000000     0.367700000000     0.102022   
H        H      0.395100000000     0.195400000000     0.263600000000     0.102022   
H        H      0.489400000000     0.167100000000     0.312100000000     0.102022   
H        H      0.441700000000     0.106000000000     0.261100000000     0.102022   
H        H      0.627400000000     0.394100000000     0.520900000000     0.102022   
H        H      0.925200000000     0.298400000000     0.580400000000     0.102022   
H        H      0.025000000000     0.355900000000     0.493300000000     0.102022   
H        H      0.094400000000     0.446800000000     0.396500000000     0.102022   
H        H      0.117400000000     0.542900000000     0.314300000000     0.102022   
H        H      0.779500000000     0.594800000000     0.315600000000     0.102022   
H        H      0.587000000000     0.539100000000     0.474300000000     0.102022   
H        H      0.617500000000     0.595000000000     0.416100000000     0.102022   
H        H      0.768200000000     0.576800000000     0.519800000000     0.102022   
H        H      0.777600000000     0.642800000000     0.465700000000     0.102022   
H        H      0.695800000000     0.703700000000     0.559700000000     0.102022   
H        H      0.605600000000     0.706800000000     0.504300000000     0.102022   
H        H      0.595100000000     0.640700000000     0.557900000000     0.102022   
H        H      0.601900000000     0.487800000000     0.342600000000     0.102022   
H        H      0.564100000000     0.430100000000     0.398300000000     0.102022   
H        H      0.745400000000     0.393000000000     0.315600000000     0.102022   
H        H      0.694700000000     0.333900000000     0.367700000000     0.102022   
H        H      0.604900000000     0.304600000000     0.263600000000     0.102022   
H        H      0.510600000000     0.332900000000     0.312100000000     0.102022   
H        H      0.558300000000     0.394000000000     0.261100000000     0.102022   
H        H      0.872600000000     0.394100000000     0.979100000000     0.102022   
H        H      0.574800000000     0.298400000000     0.919600000000     0.102022   
H        H      0.475000000000     0.355900000000     0.006700000000     0.102022   
H        H      0.405600000000     0.446800000000     0.103500000000     0.102022   
H        H      0.382600000000     0.542900000000     0.185700000000     0.102022   
H        H      0.720500000000     0.594800000000     0.184400000000     0.102022   
H        H      0.913000000000     0.539100000000     0.025700000000     0.102022   
H        H      0.882500000000     0.595000000000     0.083900000000     0.102022   
H        H      0.731800000000     0.576800000000     0.980200000000     0.102022   
H        H      0.722400000000     0.642800000000     0.034300000000     0.102022   
H        H      0.804200000000     0.703700000000     0.940300000000     0.102022   
H        H      0.894400000000     0.706800000000     0.995700000000     0.102022   
H        H      0.904900000000     0.640700000000     0.942100000000     0.102022   
H        H      0.898100000000     0.487800000000     0.157400000000     0.102022   
H        H      0.935900000000     0.430100000000     0.101700000000     0.102022   
H        H      0.754600000000     0.393000000000     0.184400000000     0.102022   
H        H      0.805300000000     0.333900000000     0.132300000000     0.102022   
H        H      0.895100000000     0.304600000000     0.236400000000     0.102022   
H        H      0.989400000000     0.332900000000     0.187900000000     0.102022   
H        H      0.941700000000     0.394000000000     0.238900000000     0.102022   
H        H      0.127400000000     0.105900000000     0.979100000000     0.102022   
H        H      0.425200000000     0.201600000000     0.919600000000     0.102022   
H        H      0.525000000000     0.144100000000     0.006700000000     0.102022   
H        H      0.594400000000     0.053200000000     0.103500000000     0.102022   
H        H      0.617400000000     0.957100000000     0.185700000000     0.102022   
H        H      0.279500000000     0.905200000000     0.184400000000     0.102022   
H        H      0.087000000000     0.960900000000     0.025700000000     0.102022   
H        H      0.117500000000     0.905000000000     0.083900000000     0.102022   
H        H      0.268200000000     0.923200000000     0.980200000000     0.102022   
H        H      0.277600000000     0.857200000000     0.034300000000     0.102022   
H        H      0.195800000000     0.796300000000     0.940300000000     0.102022   
H        H      0.105600000000     0.793200000000     0.995700000000     0.102022   
H        H      0.095100000000     0.859300000000     0.942100000000     0.102022   
H        H      0.101900000000     0.012200000000     0.157400000000     0.102022   
H        H      0.064100000000     0.069900000000     0.101700000000     0.102022   
H        H      0.245400000000     0.107000000000     0.184400000000     0.102022   
H        H      0.194700000000     0.166100000000     0.132300000000     0.102022   
H        H      0.104900000000     0.195400000000     0.236400000000     0.102022   
H        H      0.010600000000     0.167100000000     0.187900000000     0.102022   
H        H      0.058300000000     0.106000000000     0.238900000000     0.102022   
C        C      0.706300000000     0.889300000000     0.483800000000    -0.0601645  
C        C      0.770400000000     0.842000000000     0.441800000000    -0.0601645  
C        C      0.886200000000     0.830300000000     0.449100000000    -0.0601645  
C        C      0.947300000000     0.865300000000     0.500100000000    -0.0601645  
C        C      0.032900000000     0.976800000000     0.619200000000    -0.0601645  
C        C      0.045300000000     0.034300000000     0.668100000000    -0.0601645  
C        C      0.951200000000     0.079600000000     0.691400000000    -0.0601645  
C        C      0.841900000000     0.067000000000     0.667400000000    -0.0601645  
C        C      0.716700000000     0.988600000000     0.582500000000    -0.0601645  
C        C      0.763400000000     0.929200000000     0.533000000000    -0.0601645  
C        C      0.881400000000     0.915700000000     0.540600000000    -0.0601645  
C        C      0.919800000000     0.967300000000     0.595300000000    -0.0601645  
C        C      0.827300000000     0.011300000000     0.616800000000    -0.0601645  
C        C      0.713800000000     0.801300000000     0.387100000000    -0.0601645  
C        C      0.971900000000     0.142100000000     0.747300000000    -0.0601645  
C        C      0.649800000000     0.060900000000     0.550700000000    -0.0601645  
C        C      0.724300000000     0.111700000000     0.508500000000    -0.0601645  
C        C      0.647700000000     0.171600000000     0.467600000000    -0.0601645  
C        C      0.629200000000     0.947900000000     0.626800000000    -0.0601645  
C        C      0.676300000000     0.877700000000     0.661600000000    -0.0601645  
C        C      0.577400000000     0.849400000000     0.711300000000    -0.0601645  
C        C      0.293700000000     0.610700000000     0.483800000000    -0.0601645  
C        C      0.229600000000     0.658000000000     0.441800000000    -0.0601645  
C        C      0.113800000000     0.669700000000     0.449100000000    -0.0601645  
C        C      0.052700000000     0.634700000000     0.500100000000    -0.0601645  
C        C      0.967100000000     0.523200000000     0.619200000000    -0.0601645  
C        C      0.954700000000     0.465700000000     0.668100000000    -0.0601645  
C        C      0.048800000000     0.420400000000     0.691400000000    -0.0601645  
C        C      0.158100000000     0.433000000000     0.667400000000    -0.0601645  
C        C      0.283300000000     0.511400000000     0.582500000000    -0.0601645  
C        C      0.236600000000     0.570800000000     0.533000000000    -0.0601645  
C        C      0.118600000000     0.584300000000     0.540600000000    -0.0601645  
C        C      0.080200000000     0.532700000000     0.595300000000    -0.0601645  
C        C      0.172700000000     0.488700000000     0.616800000000    -0.0601645  
C        C      0.286200000000     0.698700000000     0.387100000000    -0.0601645  
C        C      0.028100000000     0.357900000000     0.747300000000    -0.0601645  
C        C      0.350200000000     0.439100000000     0.550700000000    -0.0601645  
C        C      0.275700000000     0.388300000000     0.508500000000    -0.0601645  
C        C      0.352300000000     0.328400000000     0.467600000000    -0.0601645  
C        C      0.370800000000     0.552100000000     0.626800000000    -0.0601645  
C        C      0.323700000000     0.622300000000     0.661600000000    -0.0601645  
C        C      0.422600000000     0.650600000000     0.711300000000    -0.0601645  
C        C      0.206300000000     0.610700000000     0.016200000000    -0.0601645  
C        C      0.270400000000     0.658000000000     0.058200000000    -0.0601645  
C        C      0.386200000000     0.669700000000     0.050900000000    -0.0601645  
C        C      0.447300000000     0.634700000000     0.999900000000    -0.0601645  
C        C      0.532900000000     0.523200000000     0.880800000000    -0.0601645  
C        C      0.545300000000     0.465700000000     0.831900000000    -0.0601645  
C        C      0.451200000000     0.420400000000     0.808600000000    -0.0601645  
C        C      0.341900000000     0.433000000000     0.832600000000    -0.0601645  
C        C      0.216700000000     0.511400000000     0.917500000000    -0.0601645  
C        C      0.263400000000     0.570800000000     0.967000000000    -0.0601645  
C        C      0.381400000000     0.584300000000     0.959400000000    -0.0601645  
C        C      0.419800000000     0.532700000000     0.904700000000    -0.0601645  
C        C      0.327300000000     0.488700000000     0.883200000000    -0.0601645  
C        C      0.213800000000     0.698700000000     0.112900000000    -0.0601645  
C        C      0.471900000000     0.357900000000     0.752700000000    -0.0601645  
C        C      0.149800000000     0.439100000000     0.949300000000    -0.0601645  
C        C      0.224300000000     0.388300000000     0.991500000000    -0.0601645  
C        C      0.147700000000     0.328400000000     0.032400000000    -0.0601645  
C        C      0.129200000000     0.552100000000     0.873200000000    -0.0601645  
C        C      0.176300000000     0.622300000000     0.838400000000    -0.0601645  
C        C      0.077400000000     0.650600000000     0.788700000000    -0.0601645  
C        C      0.793700000000     0.889300000000     0.016200000000    -0.0601645  
C        C      0.729600000000     0.842000000000     0.058200000000    -0.0601645  
C        C      0.613800000000     0.830300000000     0.050900000000    -0.0601645  
C        C      0.552700000000     0.865300000000     0.999900000000    -0.0601645  
C        C      0.467100000000     0.976800000000     0.880800000000    -0.0601645  
C        C      0.454700000000     0.034300000000     0.831900000000    -0.0601645  
C        C      0.548800000000     0.079600000000     0.808600000000    -0.0601645  
C        C      0.658100000000     0.067000000000     0.832600000000    -0.0601645  
C        C      0.783300000000     0.988600000000     0.917500000000    -0.0601645  
C        C      0.736600000000     0.929200000000     0.967000000000    -0.0601645  
C        C      0.618600000000     0.915700000000     0.959400000000    -0.0601645  
C        C      0.580200000000     0.967300000000     0.904700000000    -0.0601645  
C        C      0.672700000000     0.011300000000     0.883200000000    -0.0601645  
C        C      0.786200000000     0.801300000000     0.112900000000    -0.0601645  
C        C      0.528100000000     0.142100000000     0.752700000000    -0.0601645  
C        C      0.850200000000     0.060900000000     0.949300000000    -0.0601645  
C        C      0.775700000000     0.111700000000     0.991500000000    -0.0601645  
C        C      0.852300000000     0.171600000000     0.032400000000    -0.0601645  
C        C      0.870800000000     0.947900000000     0.873200000000    -0.0601645  
C        C      0.823700000000     0.877700000000     0.838400000000    -0.0601645  
C        C      0.922600000000     0.849400000000     0.788700000000    -0.0601645  
C        C      0.293700000000     0.110700000000     0.516200000000    -0.0601645  
C        C      0.229600000000     0.158000000000     0.558200000000    -0.0601645  
C        C      0.113800000000     0.169700000000     0.550900000000    -0.0601645  
C        C      0.052700000000     0.134700000000     0.499900000000    -0.0601645  
C        C      0.967100000000     0.023200000000     0.380800000000    -0.0601645  
C        C      0.954700000000     0.965700000000     0.331900000000    -0.0601645  
C        C      0.048800000000     0.920400000000     0.308600000000    -0.0601645  
C        C      0.158100000000     0.933000000000     0.332600000000    -0.0601645  
C        C      0.283300000000     0.011400000000     0.417500000000    -0.0601645  
C        C      0.236600000000     0.070800000000     0.467000000000    -0.0601645  
C        C      0.118600000000     0.084300000000     0.459400000000    -0.0601645  
C        C      0.080200000000     0.032700000000     0.404700000000    -0.0601645  
C        C      0.172700000000     0.988700000000     0.383200000000    -0.0601645  
C        C      0.286200000000     0.198700000000     0.612900000000    -0.0601645  
C        C      0.028100000000     0.857900000000     0.252700000000    -0.0601645  
C        C      0.350200000000     0.939100000000     0.449300000000    -0.0601645  
C        C      0.275700000000     0.888300000000     0.491500000000    -0.0601645  
C        C      0.352300000000     0.828400000000     0.532400000000    -0.0601645  
C        C      0.370800000000     0.052100000000     0.373200000000    -0.0601645  
C        C      0.323700000000     0.122300000000     0.338400000000    -0.0601645  
C        C      0.422600000000     0.150600000000     0.288700000000    -0.0601645  
C        C      0.706300000000     0.389300000000     0.516200000000    -0.0601645  
C        C      0.770400000000     0.342000000000     0.558200000000    -0.0601645  
C        C      0.886200000000     0.330300000000     0.550900000000    -0.0601645  
C        C      0.947300000000     0.365300000000     0.499900000000    -0.0601645  
C        C      0.032900000000     0.476800000000     0.380800000000    -0.0601645  
C        C      0.045300000000     0.534300000000     0.331900000000    -0.0601645  
C        C      0.951200000000     0.579600000000     0.308600000000    -0.0601645  
C        C      0.841900000000     0.567000000000     0.332600000000    -0.0601645  
C        C      0.716700000000     0.488600000000     0.417500000000    -0.0601645  
C        C      0.763400000000     0.429200000000     0.467000000000    -0.0601645  
C        C      0.881400000000     0.415700000000     0.459400000000    -0.0601645  
C        C      0.919800000000     0.467300000000     0.404700000000    -0.0601645  
C        C      0.827300000000     0.511300000000     0.383200000000    -0.0601645  
C        C      0.713800000000     0.301300000000     0.612900000000    -0.0601645  
C        C      0.971900000000     0.642100000000     0.252700000000    -0.0601645  
C        C      0.649800000000     0.560900000000     0.449300000000    -0.0601645  
C        C      0.724300000000     0.611700000000     0.491500000000    -0.0601645  
C        C      0.647700000000     0.671600000000     0.532400000000    -0.0601645  
C        C      0.629200000000     0.447900000000     0.373200000000    -0.0601645  
C        C      0.676300000000     0.377700000000     0.338400000000    -0.0601645  
C        C      0.577400000000     0.349400000000     0.288700000000    -0.0601645  
C        C      0.793700000000     0.389300000000     0.983800000000    -0.0601645  
C        C      0.729600000000     0.342000000000     0.941800000000    -0.0601645  
C        C      0.613800000000     0.330300000000     0.949100000000    -0.0601645  
C        C      0.552700000000     0.365300000000     0.000100000000    -0.0601645  
C        C      0.467100000000     0.476800000000     0.119200000000    -0.0601645  
C        C      0.454700000000     0.534300000000     0.168100000000    -0.0601645  
C        C      0.548800000000     0.579600000000     0.191400000000    -0.0601645  
C        C      0.658100000000     0.567000000000     0.167400000000    -0.0601645  
C        C      0.783300000000     0.488600000000     0.082500000000    -0.0601645  
C        C      0.736600000000     0.429200000000     0.033000000000    -0.0601645  
C        C      0.618600000000     0.415700000000     0.040600000000    -0.0601645  
C        C      0.580200000000     0.467300000000     0.095300000000    -0.0601645  
C        C      0.672700000000     0.511300000000     0.116800000000    -0.0601645  
C        C      0.786200000000     0.301300000000     0.887100000000    -0.0601645  
C        C      0.528100000000     0.642100000000     0.247300000000    -0.0601645  
C        C      0.850200000000     0.560900000000     0.050700000000    -0.0601645  
C        C      0.775700000000     0.611700000000     0.008500000000    -0.0601645  
C        C      0.852300000000     0.671600000000     0.967600000000    -0.0601645  
C        C      0.870800000000     0.447900000000     0.126800000000    -0.0601645  
C        C      0.823700000000     0.377700000000     0.161600000000    -0.0601645  
C        C      0.922600000000     0.349400000000     0.211300000000    -0.0601645  
C        C      0.206300000000     0.110700000000     0.983800000000    -0.0601645  
C        C      0.270400000000     0.158000000000     0.941800000000    -0.0601645  
C        C      0.386200000000     0.169700000000     0.949100000000    -0.0601645  
C        C      0.447300000000     0.134700000000     0.000100000000    -0.0601645  
C        C      0.532900000000     0.023200000000     0.119200000000    -0.0601645  
C        C      0.545300000000     0.965700000000     0.168100000000    -0.0601645  
C        C      0.451200000000     0.920400000000     0.191400000000    -0.0601645  
C        C      0.341900000000     0.933000000000     0.167400000000    -0.0601645  
C        C      0.216700000000     0.011400000000     0.082500000000    -0.0601645  
C        C      0.263400000000     0.070800000000     0.033000000000    -0.0601645  
C        C      0.381400000000     0.084300000000     0.040600000000    -0.0601645  
C        C      0.419800000000     0.032700000000     0.095300000000    -0.0601645  
C        C      0.327300000000     0.988700000000     0.116800000000    -0.0601645  
C        C      0.213800000000     0.198700000000     0.887100000000    -0.0601645  
C        C      0.471900000000     0.857900000000     0.247300000000    -0.0601645  
C        C      0.149800000000     0.939100000000     0.050700000000    -0.0601645  
C        C      0.224300000000     0.888300000000     0.008500000000    -0.0601645  
C        C      0.147700000000     0.828400000000     0.967600000000    -0.0601645  
C        C      0.129200000000     0.052100000000     0.126800000000    -0.0601645  
C        C      0.176300000000     0.122300000000     0.161600000000    -0.0601645  
C        C      0.077400000000     0.150600000000     0.211300000000    -0.0601645  
O        O      0.606800000000     0.794700000000     0.390600000000    -0.311257   
O        O      0.774300000000     0.776000000000     0.341600000000    -0.311257   
O        O      0.890700000000     0.176600000000     0.766800000000    -0.311257   
O        O      0.079500000000     0.150800000000     0.757900000000    -0.311257   
O        O      0.393200000000     0.705300000000     0.390600000000    -0.311257   
O        O      0.225700000000     0.724000000000     0.341600000000    -0.311257   
O        O      0.109300000000     0.323400000000     0.766800000000    -0.311257   
O        O      0.920500000000     0.349200000000     0.757900000000    -0.311257   
O        O      0.106800000000     0.705300000000     0.109400000000    -0.311257   
O        O      0.274300000000     0.724000000000     0.158400000000    -0.311257   
O        O      0.390700000000     0.323400000000     0.733200000000    -0.311257   
O        O      0.579500000000     0.349200000000     0.742100000000    -0.311257   
O        O      0.893200000000     0.794700000000     0.109400000000    -0.311257   
O        O      0.725700000000     0.776000000000     0.158400000000    -0.311257   
O        O      0.609300000000     0.176600000000     0.733200000000    -0.311257   
O        O      0.420500000000     0.150800000000     0.742100000000    -0.311257   
O        O      0.393200000000     0.205300000000     0.609400000000    -0.311257   
O        O      0.225700000000     0.224000000000     0.658400000000    -0.311257   
O        O      0.109300000000     0.823400000000     0.233200000000    -0.311257   
O        O      0.920500000000     0.849200000000     0.242100000000    -0.311257   
O        O      0.606800000000     0.294700000000     0.609400000000    -0.311257   
O        O      0.774300000000     0.276000000000     0.658400000000    -0.311257   
O        O      0.890700000000     0.676600000000     0.233200000000    -0.311257   
O        O      0.079500000000     0.650800000000     0.242100000000    -0.311257   
O        O      0.893200000000     0.294700000000     0.890600000000    -0.311257   
O        O      0.725700000000     0.276000000000     0.841600000000    -0.311257   
O        O      0.609300000000     0.676600000000     0.266800000000    -0.311257   
O        O      0.420500000000     0.650800000000     0.257900000000    -0.311257   
O        O      0.106800000000     0.205300000000     0.890600000000    -0.311257   
O        O      0.274300000000     0.224000000000     0.841600000000    -0.311257   
O        O      0.390700000000     0.823400000000     0.266800000000    -0.311257   
O        O      0.579500000000     0.849200000000     0.257900000000    -0.311257   


