data_MULQOA_original

_audit_creation_method RASPA-1.0
_audit_creation_date 2022-1-29
_audit_author_name 'Felipe Lopes de Oliveira <felipe.lopes.oliveira@ibm.com>'

_cell_length_a    11.7437
_cell_length_b    13.0101
_cell_length_c    18.9251
_cell_angle_alpha 90
_cell_angle_beta  90
_cell_angle_gamma 112.316
_cell_volume      2674.94

_symmetry_cell_setting          triclinic
_symmetry_space_group_name_Hall 'P 1'
_symmetry_space_group_name_H-M  'P 1'
_symmetry_Int_Tables_number     1

_symmetry_equiv_pos_as_xyz 'x,y,z'

loop_
_atom_site_label
_atom_site_type_symbol
_atom_site_fract_x
_atom_site_fract_y
_atom_site_fract_z
_atom_site_charge
Zn       Zn     0.176100000000     0.650790000000     0.628150000000     0.442612   
Zn       Zn     0.661200000000     0.622550000000     0.585630000000     0.442612   
Zn       Zn     0.556020000000     0.878890000000     0.831790000000     0.442612   
Zn       Zn     0.323900000000     0.849210000000     0.128150000000     0.442612   
Zn       Zn     0.838800000000     0.877450000000     0.085630000000     0.442612   
Zn       Zn     0.943980000000     0.621110000000     0.331790000000     0.442612   
Zn       Zn     0.823900000000     0.349210000000     0.371850000000     0.442612   
Zn       Zn     0.338800000000     0.377450000000     0.414370000000     0.442612   
Zn       Zn     0.443980000000     0.121110000000     0.168210000000     0.442612   
Zn       Zn     0.676100000000     0.150790000000     0.871850000000     0.442612   
Zn       Zn     0.161200000000     0.122550000000     0.914370000000     0.442612   
Zn       Zn     0.056020000000     0.378890000000     0.668210000000     0.442612   
H        H      0.160700000000     0.621700000000     0.452100000000     0.111314   
H        H      0.236800000000     0.533900000000     0.705400000000     0.111314   
H        H      0.121800000000     0.547900000000     0.736400000000     0.111314   
H        H      0.697500000000     0.728800000000     0.750200000000     0.111314   
H        H      0.339300000000     0.878300000000     0.952100000000     0.111314   
H        H      0.263200000000     0.966100000000     0.205400000000     0.111314   
H        H      0.378200000000     0.952100000000     0.236400000000     0.111314   
H        H      0.802500000000     0.771200000000     0.250200000000     0.111314   
H        H      0.839300000000     0.378300000000     0.547900000000     0.111314   
H        H      0.763200000000     0.466100000000     0.294600000000     0.111314   
H        H      0.878200000000     0.452100000000     0.263600000000     0.111314   
H        H      0.302500000000     0.271200000000     0.249800000000     0.111314   
H        H      0.660700000000     0.121700000000     0.047900000000     0.111314   
H        H      0.736800000000     0.033900000000     0.794600000000     0.111314   
H        H      0.621800000000     0.047900000000     0.763600000000     0.111314   
H        H      0.197500000000     0.228800000000     0.749800000000     0.111314   
C        C      0.092600000000     0.631300000000     0.471500000000     0.13765    
C        C      0.423600000000     0.653300000000     0.582000000000     0.13765    
C        C      0.627400000000     0.728600000000     0.727300000000     0.13765    
C        C      0.459100000000     0.753100000000     0.705600000000     0.13765    
C        C      0.366800000000     0.803200000000     0.722400000000     0.13765    
C        C      0.483200000000     0.696900000000     0.650000000000     0.13765    
C        C      0.917900000000     0.648300000000     0.480900000000     0.13765    
C        C      0.929200000000     0.664700000000     0.620300000000     0.13765    
C        C      0.965700000000     0.651000000000     0.547900000000     0.13765    
C        C      0.805100000000     0.660300000000     0.450800000000     0.13765    
C        C      0.407400000000     0.868700000000     0.971500000000     0.13765    
C        C      0.076400000000     0.846700000000     0.082000000000     0.13765    
C        C      0.872600000000     0.771400000000     0.227300000000     0.13765    
C        C      0.040900000000     0.746900000000     0.205600000000     0.13765    
C        C      0.133200000000     0.696800000000     0.222400000000     0.13765    
C        C      0.016800000000     0.803100000000     0.150000000000     0.13765    
C        C      0.582100000000     0.851700000000     0.980900000000     0.13765    
C        C      0.570800000000     0.835300000000     0.120300000000     0.13765    
C        C      0.534300000000     0.849000000000     0.047900000000     0.13765    
C        C      0.694900000000     0.839700000000     0.950800000000     0.13765    
C        C      0.907400000000     0.368700000000     0.528500000000     0.13765    
C        C      0.576400000000     0.346700000000     0.418000000000     0.13765    
C        C      0.372600000000     0.271400000000     0.272700000000     0.13765    
C        C      0.540900000000     0.246900000000     0.294400000000     0.13765    
C        C      0.633200000000     0.196800000000     0.277600000000     0.13765    
C        C      0.516800000000     0.303100000000     0.350000000000     0.13765    
C        C      0.082100000000     0.351700000000     0.519100000000     0.13765    
C        C      0.070800000000     0.335300000000     0.379700000000     0.13765    
C        C      0.034300000000     0.349000000000     0.452100000000     0.13765    
C        C      0.194900000000     0.339700000000     0.549200000000     0.13765    
C        C      0.592600000000     0.131300000000     0.028500000000     0.13765    
C        C      0.923600000000     0.153300000000     0.918000000000     0.13765    
C        C      0.127400000000     0.228600000000     0.772700000000     0.13765    
C        C      0.959100000000     0.253100000000     0.794400000000     0.13765    
C        C      0.866800000000     0.303200000000     0.777600000000     0.13765    
C        C      0.983200000000     0.196900000000     0.850000000000     0.13765    
C        C      0.417900000000     0.148300000000     0.019100000000     0.13765    
C        C      0.429200000000     0.164700000000     0.879700000000     0.13765    
C        C      0.465700000000     0.151000000000     0.952100000000     0.13765    
C        C      0.305100000000     0.160300000000     0.049200000000     0.13765    
N        N      0.078100000000     0.641700000000     0.539700000000    -0.148172   
N        N      0.590100000000     0.683000000000     0.664200000000    -0.148172   
N        N      0.552300000000     0.773900000000     0.753700000000    -0.148172   
N        N      0.998700000000     0.635800000000     0.433000000000    -0.148172   
N        N      0.421900000000     0.858300000000     0.039700000000    -0.148172   
N        N      0.909900000000     0.817000000000     0.164200000000    -0.148172   
N        N      0.947700000000     0.726100000000     0.253700000000    -0.148172   
N        N      0.501300000000     0.864200000000     0.933000000000    -0.148172   
N        N      0.921900000000     0.358300000000     0.460300000000    -0.148172   
N        N      0.409900000000     0.317000000000     0.335800000000    -0.148172   
N        N      0.447700000000     0.226100000000     0.246300000000    -0.148172   
N        N      0.001300000000     0.364200000000     0.567000000000    -0.148172   
N        N      0.578100000000     0.141700000000     0.960300000000    -0.148172   
N        N      0.090100000000     0.183000000000     0.835800000000    -0.148172   
N        N      0.052300000000     0.273900000000     0.746300000000    -0.148172   
N        N      0.498700000000     0.135800000000     0.067000000000    -0.148172   
O        O      0.320000000000     0.652600000000     0.566200000000    -0.284101   
O        O      0.486200000000     0.618400000000     0.541300000000    -0.284101   
O        O      0.385400000000     0.860600000000     0.777700000000    -0.284101   
O        O      0.276600000000     0.789500000000     0.681800000000    -0.284101   
O        O      0.155800000000     0.530600000000     0.693100000000    -0.284101   
O        O      0.008900000000     0.673600000000     0.667000000000    -0.284101   
O        O      0.826700000000     0.667700000000     0.635200000000    -0.284101   
O        O      0.725400000000     0.673900000000     0.490600000000    -0.284101   
O        O      0.797400000000     0.657700000000     0.384300000000    -0.284101   
O        O      0.180000000000     0.847400000000     0.066200000000    -0.284101   
O        O      0.013800000000     0.881600000000     0.041300000000    -0.284101   
O        O      0.114600000000     0.639400000000     0.277700000000    -0.284101   
O        O      0.223400000000     0.710500000000     0.181800000000    -0.284101   
O        O      0.344200000000     0.969400000000     0.193100000000    -0.284101   
O        O      0.491100000000     0.826400000000     0.167000000000    -0.284101   
O        O      0.673300000000     0.832300000000     0.135200000000    -0.284101   
O        O      0.774600000000     0.826100000000     0.990600000000    -0.284101   
O        O      0.702600000000     0.842300000000     0.884300000000    -0.284101   
O        O      0.680000000000     0.347400000000     0.433800000000    -0.284101   
O        O      0.513800000000     0.381600000000     0.458700000000    -0.284101   
O        O      0.614600000000     0.139400000000     0.222300000000    -0.284101   
O        O      0.723400000000     0.210500000000     0.318200000000    -0.284101   
O        O      0.844200000000     0.469400000000     0.306900000000    -0.284101   
O        O      0.991100000000     0.326400000000     0.333000000000    -0.284101   
O        O      0.173300000000     0.332300000000     0.364800000000    -0.284101   
O        O      0.274600000000     0.326100000000     0.509400000000    -0.284101   
O        O      0.202600000000     0.342300000000     0.615700000000    -0.284101   
O        O      0.820000000000     0.152600000000     0.933800000000    -0.284101   
O        O      0.986200000000     0.118400000000     0.958700000000    -0.284101   
O        O      0.885400000000     0.360600000000     0.722300000000    -0.284101   
O        O      0.776600000000     0.289500000000     0.818200000000    -0.284101   
O        O      0.655800000000     0.030600000000     0.806900000000    -0.284101   
O        O      0.508900000000     0.173600000000     0.833000000000    -0.284101   
O        O      0.326700000000     0.167700000000     0.864800000000    -0.284101   
O        O      0.225400000000     0.173900000000     0.009400000000    -0.284101   
O        O      0.297400000000     0.157700000000     0.115700000000    -0.284101   


