data_MUVGUG_original

_audit_creation_method RASPA-1.0
_audit_creation_date 2022-1-29
_audit_author_name 'Felipe Lopes de Oliveira <felipe.lopes.oliveira@ibm.com>'

_cell_length_a    11.419
_cell_length_b    12.67
_cell_length_c    14.752
_cell_angle_alpha 90
_cell_angle_beta  90
_cell_angle_gamma 90
_cell_volume      2134.3

_symmetry_cell_setting          triclinic
_symmetry_space_group_name_Hall 'P 1'
_symmetry_space_group_name_H-M  'P 1'
_symmetry_Int_Tables_number     1

_symmetry_equiv_pos_as_xyz 'x,y,z'

loop_
_atom_site_label
_atom_site_type_symbol
_atom_site_fract_x
_atom_site_fract_y
_atom_site_fract_z
_atom_site_charge
Zn       Zn     0.500000000000     0.500000000000     0.250000000000     0.376065   
Zn       Zn     0.500000000000     0.500000000000     0.750000000000     0.376065   
H        H      0.910800000000     0.655500000000     0.274800000000     0.0588622  
H        H      0.698000000000     0.779700000000     0.136100000000     0.0588622  
H        H      0.709700000000     0.650400000000     0.276400000000     0.0588622  
H        H      0.839500000000     0.909100000000     0.135500000000     0.0588622  
H        H      0.089200000000     0.344500000000     0.274800000000     0.0588622  
H        H      0.302000000000     0.220300000000     0.136100000000     0.0588622  
H        H      0.290300000000     0.349600000000     0.276400000000     0.0588622  
H        H      0.160500000000     0.090900000000     0.135500000000     0.0588622  
H        H      0.089200000000     0.655500000000     0.225200000000     0.0588622  
H        H      0.302000000000     0.779700000000     0.363900000000     0.0588622  
H        H      0.290300000000     0.650400000000     0.223600000000     0.0588622  
H        H      0.160500000000     0.909100000000     0.364500000000     0.0588622  
H        H      0.910800000000     0.344500000000     0.225200000000     0.0588622  
H        H      0.698000000000     0.220300000000     0.363900000000     0.0588622  
H        H      0.709700000000     0.349600000000     0.223600000000     0.0588622  
H        H      0.839500000000     0.090900000000     0.364500000000     0.0588622  
H        H      0.089200000000     0.344500000000     0.725200000000     0.0588622  
H        H      0.302000000000     0.220300000000     0.863900000000     0.0588622  
H        H      0.290300000000     0.349600000000     0.723600000000     0.0588622  
H        H      0.160500000000     0.090900000000     0.864500000000     0.0588622  
H        H      0.910800000000     0.655500000000     0.725200000000     0.0588622  
H        H      0.698000000000     0.779700000000     0.863900000000     0.0588622  
H        H      0.709700000000     0.650400000000     0.723600000000     0.0588622  
H        H      0.839500000000     0.909100000000     0.864500000000     0.0588622  
H        H      0.910800000000     0.344500000000     0.774800000000     0.0588622  
H        H      0.698000000000     0.220300000000     0.636100000000     0.0588622  
H        H      0.709700000000     0.349600000000     0.776400000000     0.0588622  
H        H      0.839500000000     0.090900000000     0.635500000000     0.0588622  
H        H      0.089200000000     0.655500000000     0.774800000000     0.0588622  
H        H      0.302000000000     0.779700000000     0.636100000000     0.0588622  
H        H      0.290300000000     0.650400000000     0.776400000000     0.0588622  
H        H      0.160500000000     0.909100000000     0.635500000000     0.0588622  
C        C      0.750800000000     0.588400000000     0.265100000000     0.00567687 
C        C      0.871900000000     0.592000000000     0.265000000000     0.00567687 
C        C      0.538200000000     0.651500000000     0.080410000000     0.00567687 
C        C      0.724300000000     0.807400000000     0.081400000000     0.00567687 
C        C      0.920600000000     0.090000000000     0.080400000000     0.00567687 
C        C      0.807400000000     0.886000000000     0.081000000000     0.00567687 
C        C      0.249200000000     0.411600000000     0.265100000000     0.00567687 
C        C      0.128100000000     0.408000000000     0.265000000000     0.00567687 
C        C      0.461800000000     0.348500000000     0.080410000000     0.00567687 
C        C      0.275700000000     0.192600000000     0.081400000000     0.00567687 
C        C      0.079400000000     0.910000000000     0.080400000000     0.00567687 
C        C      0.192600000000     0.114000000000     0.081000000000     0.00567687 
C        C      0.249200000000     0.588400000000     0.234900000000     0.00567687 
C        C      0.128100000000     0.592000000000     0.235000000000     0.00567687 
C        C      0.461800000000     0.651500000000     0.419590000000     0.00567687 
C        C      0.275700000000     0.807400000000     0.418600000000     0.00567687 
C        C      0.079400000000     0.090000000000     0.419600000000     0.00567687 
C        C      0.192600000000     0.886000000000     0.419000000000     0.00567687 
C        C      0.750800000000     0.411600000000     0.234900000000     0.00567687 
C        C      0.871900000000     0.408000000000     0.235000000000     0.00567687 
C        C      0.538200000000     0.348500000000     0.419590000000     0.00567687 
C        C      0.724300000000     0.192600000000     0.418600000000     0.00567687 
C        C      0.920600000000     0.910000000000     0.419600000000     0.00567687 
C        C      0.807400000000     0.114000000000     0.419000000000     0.00567687 
C        C      0.249200000000     0.411600000000     0.734900000000     0.00567687 
C        C      0.128100000000     0.408000000000     0.735000000000     0.00567687 
C        C      0.461800000000     0.348500000000     0.919590000000     0.00567687 
C        C      0.275700000000     0.192600000000     0.918600000000     0.00567687 
C        C      0.079400000000     0.910000000000     0.919600000000     0.00567687 
C        C      0.192600000000     0.114000000000     0.919000000000     0.00567687 
C        C      0.750800000000     0.588400000000     0.734900000000     0.00567687 
C        C      0.871900000000     0.592000000000     0.735000000000     0.00567687 
C        C      0.538200000000     0.651500000000     0.919590000000     0.00567687 
C        C      0.724300000000     0.807400000000     0.918600000000     0.00567687 
C        C      0.920600000000     0.090000000000     0.919600000000     0.00567687 
C        C      0.807400000000     0.886000000000     0.919000000000     0.00567687 
C        C      0.750800000000     0.411600000000     0.765100000000     0.00567687 
C        C      0.871900000000     0.408000000000     0.765000000000     0.00567687 
C        C      0.538200000000     0.348500000000     0.580410000000     0.00567687 
C        C      0.724300000000     0.192600000000     0.581400000000     0.00567687 
C        C      0.920600000000     0.910000000000     0.580400000000     0.00567687 
C        C      0.807400000000     0.114000000000     0.581000000000     0.00567687 
C        C      0.249200000000     0.588400000000     0.765100000000     0.00567687 
C        C      0.128100000000     0.592000000000     0.765000000000     0.00567687 
C        C      0.461800000000     0.651500000000     0.580410000000     0.00567687 
C        C      0.275700000000     0.807400000000     0.581400000000     0.00567687 
C        C      0.079400000000     0.090000000000     0.580400000000     0.00567687 
C        C      0.192600000000     0.886000000000     0.581000000000     0.00567687 
C        C      0.585000000000     0.691500000000     0.000000000000     0.00567687 
C        C      0.678300000000     0.768400000000     0.000000000000     0.00567687 
C        C      0.932000000000     0.023600000000     0.000000000000     0.00567687 
C        C      0.842900000000     0.931500000000     0.000000000000     0.00567687 
C        C      0.415000000000     0.308500000000     0.000000000000     0.00567687 
C        C      0.321700000000     0.231600000000     0.000000000000     0.00567687 
C        C      0.068000000000     0.976400000000     0.000000000000     0.00567687 
C        C      0.157100000000     0.068500000000     0.000000000000     0.00567687 
C        C      0.415000000000     0.691500000000     0.500000000000     0.00567687 
C        C      0.321700000000     0.768400000000     0.500000000000     0.00567687 
C        C      0.068000000000     0.023600000000     0.500000000000     0.00567687 
C        C      0.157100000000     0.931500000000     0.500000000000     0.00567687 
C        C      0.585000000000     0.308500000000     0.500000000000     0.00567687 
C        C      0.678300000000     0.231600000000     0.500000000000     0.00567687 
C        C      0.932000000000     0.976400000000     0.500000000000     0.00567687 
C        C      0.842900000000     0.068500000000     0.500000000000     0.00567687 
C        C      0.934700000000     0.500000000000     0.250000000000     0.00567687 
C        C      0.065300000000     0.500000000000     0.250000000000     0.00567687 
C        C      0.065300000000     0.500000000000     0.750000000000     0.00567687 
C        C      0.934700000000     0.500000000000     0.750000000000     0.00567687 
N        N      0.899000000000     0.135700000000     0.144800000000    -0.151087   
N        N      0.501280000000     0.619700000000     0.147480000000    -0.151087   
N        N      0.101000000000     0.864300000000     0.144800000000    -0.151087   
N        N      0.498720000000     0.380300000000     0.147480000000    -0.151087   
N        N      0.101000000000     0.135700000000     0.355200000000    -0.151087   
N        N      0.498720000000     0.619700000000     0.352520000000    -0.151087   
N        N      0.899000000000     0.864300000000     0.355200000000    -0.151087   
N        N      0.501280000000     0.380300000000     0.352520000000    -0.151087   
N        N      0.101000000000     0.864300000000     0.855200000000    -0.151087   
N        N      0.498720000000     0.380300000000     0.852520000000    -0.151087   
N        N      0.899000000000     0.135700000000     0.855200000000    -0.151087   
N        N      0.501280000000     0.619700000000     0.852520000000    -0.151087   
N        N      0.899000000000     0.864300000000     0.644800000000    -0.151087   
N        N      0.501280000000     0.380300000000     0.647480000000    -0.151087   
N        N      0.101000000000     0.135700000000     0.644800000000    -0.151087   
N        N      0.498720000000     0.619700000000     0.647480000000    -0.151087   
N        N      0.689700000000     0.500000000000     0.250000000000    -0.151087   
N        N      0.310300000000     0.500000000000     0.250000000000    -0.151087   
N        N      0.310300000000     0.500000000000     0.750000000000    -0.151087   
N        N      0.689700000000     0.500000000000     0.750000000000    -0.151087   


