data_MUVHER_original

_audit_creation_method RASPA-1.0
_audit_creation_date 2022-1-31
_audit_author_name 'Felipe Lopes de Oliveira <felipe.lopes.oliveira@ibm.com>'

_cell_length_a    11.3749
_cell_length_b    12.7239
_cell_length_c    14.801
_cell_angle_alpha 90
_cell_angle_beta  90
_cell_angle_gamma 90
_cell_volume      2142.19

_symmetry_cell_setting          triclinic
_symmetry_space_group_name_Hall 'P 1'
_symmetry_space_group_name_H-M  'P 1'
_symmetry_Int_Tables_number     1

_symmetry_equiv_pos_as_xyz 'x,y,z'

loop_
_atom_site_label
_atom_site_type_symbol
_atom_site_fract_x
_atom_site_fract_y
_atom_site_fract_z
_atom_site_charge
Zn       Zn     0.000000000000     0.000000000000     0.250000000000     0.376122   
Zn       Zn     0.000000000000     0.000000000000     0.750000000000     0.376122   
H        H      0.588700000000     0.843600000000     0.226800000000     0.0562523  
H        H      0.792400000000     0.848000000000     0.228300000000     0.0562523  
H        H      0.196100000000     0.717500000000     0.136700000000     0.0562523  
H        H      0.330700000000     0.582600000000     0.136100000000     0.0562523  
H        H      0.411300000000     0.156400000000     0.226800000000     0.0562523  
H        H      0.207600000000     0.152000000000     0.228300000000     0.0562523  
H        H      0.803900000000     0.282500000000     0.136700000000     0.0562523  
H        H      0.669300000000     0.417400000000     0.136100000000     0.0562523  
H        H      0.411300000000     0.843600000000     0.273200000000     0.0562523  
H        H      0.207600000000     0.848000000000     0.271700000000     0.0562523  
H        H      0.803900000000     0.717500000000     0.363300000000     0.0562523  
H        H      0.669300000000     0.582600000000     0.363900000000     0.0562523  
H        H      0.588700000000     0.156400000000     0.273200000000     0.0562523  
H        H      0.792400000000     0.152000000000     0.271700000000     0.0562523  
H        H      0.196100000000     0.282500000000     0.363300000000     0.0562523  
H        H      0.330700000000     0.417400000000     0.363900000000     0.0562523  
H        H      0.411300000000     0.156400000000     0.773200000000     0.0562523  
H        H      0.207600000000     0.152000000000     0.771700000000     0.0562523  
H        H      0.803900000000     0.282500000000     0.863300000000     0.0562523  
H        H      0.669300000000     0.417400000000     0.863900000000     0.0562523  
H        H      0.588700000000     0.843600000000     0.773200000000     0.0562523  
H        H      0.792400000000     0.848000000000     0.771700000000     0.0562523  
H        H      0.196100000000     0.717500000000     0.863300000000     0.0562523  
H        H      0.330700000000     0.582600000000     0.863900000000     0.0562523  
H        H      0.588700000000     0.156400000000     0.726800000000     0.0562523  
H        H      0.792400000000     0.152000000000     0.728300000000     0.0562523  
H        H      0.196100000000     0.282500000000     0.636700000000     0.0562523  
H        H      0.330700000000     0.417400000000     0.636100000000     0.0562523  
H        H      0.411300000000     0.843600000000     0.726800000000     0.0562523  
H        H      0.207600000000     0.848000000000     0.728300000000     0.0562523  
H        H      0.803900000000     0.717500000000     0.636700000000     0.0562523  
H        H      0.669300000000     0.582600000000     0.636100000000     0.0562523  
C        C      0.039200000000     0.849390000000     0.080530000000     0.00695716 
C        C      0.418100000000     0.411200000000     0.080600000000     0.00695716 
C        C      0.628400000000     0.908400000000     0.236480000000     0.00695716 
C        C      0.750300000000     0.911600000000     0.237270000000     0.00695716 
C        C      0.221900000000     0.689200000000     0.080700000000     0.00695716 
C        C      0.302300000000     0.609700000000     0.080400000000     0.00695716 
C        C      0.960800000000     0.150610000000     0.080530000000     0.00695716 
C        C      0.581900000000     0.588800000000     0.080600000000     0.00695716 
C        C      0.371600000000     0.091600000000     0.236480000000     0.00695716 
C        C      0.249700000000     0.088400000000     0.237270000000     0.00695716 
C        C      0.778100000000     0.310800000000     0.080700000000     0.00695716 
C        C      0.697700000000     0.390300000000     0.080400000000     0.00695716 
C        C      0.960800000000     0.849390000000     0.419470000000     0.00695716 
C        C      0.581900000000     0.411200000000     0.419400000000     0.00695716 
C        C      0.371600000000     0.908400000000     0.263520000000     0.00695716 
C        C      0.249700000000     0.911600000000     0.262730000000     0.00695716 
C        C      0.778100000000     0.689200000000     0.419300000000     0.00695716 
C        C      0.697700000000     0.609700000000     0.419600000000     0.00695716 
C        C      0.039200000000     0.150610000000     0.419470000000     0.00695716 
C        C      0.418100000000     0.588800000000     0.419400000000     0.00695716 
C        C      0.628400000000     0.091600000000     0.263520000000     0.00695716 
C        C      0.750300000000     0.088400000000     0.262730000000     0.00695716 
C        C      0.221900000000     0.310800000000     0.419300000000     0.00695716 
C        C      0.302300000000     0.390300000000     0.419600000000     0.00695716 
C        C      0.960800000000     0.150610000000     0.919470000000     0.00695716 
C        C      0.581900000000     0.588800000000     0.919400000000     0.00695716 
C        C      0.371600000000     0.091600000000     0.763520000000     0.00695716 
C        C      0.249700000000     0.088400000000     0.762730000000     0.00695716 
C        C      0.778100000000     0.310800000000     0.919300000000     0.00695716 
C        C      0.697700000000     0.390300000000     0.919600000000     0.00695716 
C        C      0.039200000000     0.849390000000     0.919470000000     0.00695716 
C        C      0.418100000000     0.411200000000     0.919400000000     0.00695716 
C        C      0.628400000000     0.908400000000     0.763520000000     0.00695716 
C        C      0.750300000000     0.911600000000     0.762730000000     0.00695716 
C        C      0.221900000000     0.689200000000     0.919300000000     0.00695716 
C        C      0.302300000000     0.609700000000     0.919600000000     0.00695716 
C        C      0.039200000000     0.150610000000     0.580530000000     0.00695716 
C        C      0.418100000000     0.588800000000     0.580600000000     0.00695716 
C        C      0.628400000000     0.091600000000     0.736480000000     0.00695716 
C        C      0.750300000000     0.088400000000     0.737270000000     0.00695716 
C        C      0.221900000000     0.310800000000     0.580700000000     0.00695716 
C        C      0.302300000000     0.390300000000     0.580400000000     0.00695716 
C        C      0.960800000000     0.849390000000     0.580530000000     0.00695716 
C        C      0.581900000000     0.411200000000     0.580600000000     0.00695716 
C        C      0.371600000000     0.908400000000     0.736480000000     0.00695716 
C        C      0.249700000000     0.911600000000     0.737270000000     0.00695716 
C        C      0.778100000000     0.689200000000     0.580700000000     0.00695716 
C        C      0.697700000000     0.609700000000     0.580400000000     0.00695716 
C        C      0.565000000000     0.000000000000     0.250000000000     0.00695716 
C        C      0.435000000000     0.000000000000     0.250000000000     0.00695716 
C        C      0.435000000000     0.000000000000     0.750000000000     0.00695716 
C        C      0.565000000000     0.000000000000     0.750000000000     0.00695716 
C        C      0.176400000000     0.729900000000     0.000000000000     0.00695716 
C        C      0.433000000000     0.479400000000     0.000000000000     0.00695716 
C        C      0.343100000000     0.567800000000     0.000000000000     0.00695716 
C        C      0.085200000000     0.809700000000     0.000000000000     0.00695716 
C        C      0.823600000000     0.270100000000     0.000000000000     0.00695716 
C        C      0.567000000000     0.520600000000     0.000000000000     0.00695716 
C        C      0.656900000000     0.432200000000     0.000000000000     0.00695716 
C        C      0.914800000000     0.190300000000     0.000000000000     0.00695716 
C        C      0.823600000000     0.729900000000     0.500000000000     0.00695716 
C        C      0.567000000000     0.479400000000     0.500000000000     0.00695716 
C        C      0.656900000000     0.567800000000     0.500000000000     0.00695716 
C        C      0.914800000000     0.809700000000     0.500000000000     0.00695716 
C        C      0.176400000000     0.270100000000     0.500000000000     0.00695716 
C        C      0.433000000000     0.520600000000     0.500000000000     0.00695716 
C        C      0.343100000000     0.432200000000     0.500000000000     0.00695716 
C        C      0.085200000000     0.190300000000     0.500000000000     0.00695716 
N        N      0.404000000000     0.361700000000     0.142800000000    -0.15127    
N        N      0.001900000000     0.881000000000     0.147060000000    -0.15127    
N        N      0.596000000000     0.638300000000     0.142800000000    -0.15127    
N        N      0.998100000000     0.119000000000     0.147060000000    -0.15127    
N        N      0.596000000000     0.361700000000     0.357200000000    -0.15127    
N        N      0.998100000000     0.881000000000     0.352940000000    -0.15127    
N        N      0.404000000000     0.638300000000     0.357200000000    -0.15127    
N        N      0.001900000000     0.119000000000     0.352940000000    -0.15127    
N        N      0.596000000000     0.638300000000     0.857200000000    -0.15127    
N        N      0.998100000000     0.119000000000     0.852940000000    -0.15127    
N        N      0.404000000000     0.361700000000     0.857200000000    -0.15127    
N        N      0.001900000000     0.881000000000     0.852940000000    -0.15127    
N        N      0.404000000000     0.638300000000     0.642800000000    -0.15127    
N        N      0.001900000000     0.119000000000     0.647060000000    -0.15127    
N        N      0.596000000000     0.361700000000     0.642800000000    -0.15127    
N        N      0.998100000000     0.881000000000     0.647060000000    -0.15127    
N        N      0.811400000000     0.000000000000     0.250000000000    -0.15127    
N        N      0.188600000000     0.000000000000     0.250000000000    -0.15127    
N        N      0.188600000000     0.000000000000     0.750000000000    -0.15127    
N        N      0.811400000000     0.000000000000     0.750000000000    -0.15127    


