data_MUVHAN_original

_audit_creation_method RASPA-1.0
_audit_creation_date 2022-1-31
_audit_author_name 'Felipe Lopes de Oliveira <felipe.lopes.oliveira@ibm.com>'

_cell_length_a    11.4341
_cell_length_b    12.5791
_cell_length_c    14.7759
_cell_angle_alpha 90
_cell_angle_beta  90
_cell_angle_gamma 90
_cell_volume      2125.23

_symmetry_cell_setting          triclinic
_symmetry_space_group_name_Hall 'P 1'
_symmetry_space_group_name_H-M  'P 1'
_symmetry_Int_Tables_number     1

_symmetry_equiv_pos_as_xyz 'x,y,z'

loop_
_atom_site_label
_atom_site_type_symbol
_atom_site_fract_x
_atom_site_fract_y
_atom_site_fract_z
_atom_site_charge
Zn       Zn     0.500000000000     0.500000000000     0.250000000000     0.376      
Zn       Zn     0.500000000000     0.500000000000     0.750000000000     0.376      
H        H      0.696700000000     0.217900000000     0.136100000000     0.0590758  
H        H      0.828600000000     0.079100000000     0.135900000000     0.0590758  
H        H      0.910600000000     0.344400000000     0.280400000000     0.0590758  
H        H      0.709300000000     0.349600000000     0.280800000000     0.0590758  
H        H      0.303300000000     0.782100000000     0.136100000000     0.0590758  
H        H      0.171400000000     0.920900000000     0.135900000000     0.0590758  
H        H      0.089400000000     0.655600000000     0.280400000000     0.0590758  
H        H      0.290700000000     0.650400000000     0.280800000000     0.0590758  
H        H      0.303300000000     0.217900000000     0.363900000000     0.0590758  
H        H      0.171400000000     0.079100000000     0.364100000000     0.0590758  
H        H      0.089400000000     0.344400000000     0.219600000000     0.0590758  
H        H      0.290700000000     0.349600000000     0.219200000000     0.0590758  
H        H      0.696700000000     0.782100000000     0.363900000000     0.0590758  
H        H      0.828600000000     0.920900000000     0.364100000000     0.0590758  
H        H      0.910600000000     0.655600000000     0.219600000000     0.0590758  
H        H      0.709300000000     0.650400000000     0.219200000000     0.0590758  
H        H      0.303300000000     0.782100000000     0.863900000000     0.0590758  
H        H      0.171400000000     0.920900000000     0.864100000000     0.0590758  
H        H      0.089400000000     0.655600000000     0.719600000000     0.0590758  
H        H      0.290700000000     0.650400000000     0.719200000000     0.0590758  
H        H      0.696700000000     0.217900000000     0.863900000000     0.0590758  
H        H      0.828600000000     0.079100000000     0.864100000000     0.0590758  
H        H      0.910600000000     0.344400000000     0.719600000000     0.0590758  
H        H      0.709300000000     0.349600000000     0.719200000000     0.0590758  
H        H      0.696700000000     0.782100000000     0.636100000000     0.0590758  
H        H      0.828600000000     0.920900000000     0.635900000000     0.0590758  
H        H      0.910600000000     0.655600000000     0.780400000000     0.0590758  
H        H      0.709300000000     0.650400000000     0.780800000000     0.0590758  
H        H      0.303300000000     0.217900000000     0.636100000000     0.0590758  
H        H      0.171400000000     0.079100000000     0.635900000000     0.0590758  
H        H      0.089400000000     0.344400000000     0.780400000000     0.0590758  
H        H      0.290700000000     0.349600000000     0.780800000000     0.0590758  
C        C      0.871860000000     0.407780000000     0.268130000000     0.00557135 
C        C      0.750220000000     0.411680000000     0.267990000000     0.00557135 
C        C      0.538420000000     0.348990000000     0.080350000000     0.00557135 
C        C      0.720700000000     0.188900000000     0.081330000000     0.00557135 
C        C      0.801400000000     0.106600000000     0.081430000000     0.00557135 
C        C      0.921400000000     0.909300000000     0.081000000000     0.00557135 
C        C      0.128140000000     0.592220000000     0.268130000000     0.00557135 
C        C      0.249780000000     0.588320000000     0.267990000000     0.00557135 
C        C      0.461580000000     0.651010000000     0.080350000000     0.00557135 
C        C      0.279300000000     0.811100000000     0.081330000000     0.00557135 
C        C      0.198600000000     0.893400000000     0.081430000000     0.00557135 
C        C      0.078600000000     0.090700000000     0.081000000000     0.00557135 
C        C      0.128140000000     0.407780000000     0.231870000000     0.00557135 
C        C      0.249780000000     0.411680000000     0.232010000000     0.00557135 
C        C      0.461580000000     0.348990000000     0.419650000000     0.00557135 
C        C      0.279300000000     0.188900000000     0.418670000000     0.00557135 
C        C      0.198600000000     0.106600000000     0.418570000000     0.00557135 
C        C      0.078600000000     0.909300000000     0.419000000000     0.00557135 
C        C      0.871860000000     0.592220000000     0.231870000000     0.00557135 
C        C      0.750220000000     0.588320000000     0.232010000000     0.00557135 
C        C      0.538420000000     0.651010000000     0.419650000000     0.00557135 
C        C      0.720700000000     0.811100000000     0.418670000000     0.00557135 
C        C      0.801400000000     0.893400000000     0.418570000000     0.00557135 
C        C      0.921400000000     0.090700000000     0.419000000000     0.00557135 
C        C      0.128140000000     0.592220000000     0.731870000000     0.00557135 
C        C      0.249780000000     0.588320000000     0.732010000000     0.00557135 
C        C      0.461580000000     0.651010000000     0.919650000000     0.00557135 
C        C      0.279300000000     0.811100000000     0.918670000000     0.00557135 
C        C      0.198600000000     0.893400000000     0.918570000000     0.00557135 
C        C      0.078600000000     0.090700000000     0.919000000000     0.00557135 
C        C      0.871860000000     0.407780000000     0.731870000000     0.00557135 
C        C      0.750220000000     0.411680000000     0.732010000000     0.00557135 
C        C      0.538420000000     0.348990000000     0.919650000000     0.00557135 
C        C      0.720700000000     0.188900000000     0.918670000000     0.00557135 
C        C      0.801400000000     0.106600000000     0.918570000000     0.00557135 
C        C      0.921400000000     0.909300000000     0.919000000000     0.00557135 
C        C      0.871860000000     0.592220000000     0.768130000000     0.00557135 
C        C      0.750220000000     0.588320000000     0.767990000000     0.00557135 
C        C      0.538420000000     0.651010000000     0.580350000000     0.00557135 
C        C      0.720700000000     0.811100000000     0.581330000000     0.00557135 
C        C      0.801400000000     0.893400000000     0.581430000000     0.00557135 
C        C      0.921400000000     0.090700000000     0.581000000000     0.00557135 
C        C      0.128140000000     0.407780000000     0.768130000000     0.00557135 
C        C      0.249780000000     0.411680000000     0.767990000000     0.00557135 
C        C      0.461580000000     0.348990000000     0.580350000000     0.00557135 
C        C      0.279300000000     0.188900000000     0.581330000000     0.00557135 
C        C      0.198600000000     0.106600000000     0.581430000000     0.00557135 
C        C      0.078600000000     0.909300000000     0.581000000000     0.00557135 
C        C      0.935100000000     0.500000000000     0.250000000000     0.00557135 
C        C      0.064900000000     0.500000000000     0.250000000000     0.00557135 
C        C      0.064900000000     0.500000000000     0.750000000000     0.00557135 
C        C      0.935100000000     0.500000000000     0.750000000000     0.00557135 
C        C      0.585200000000     0.310600000000     0.000000000000     0.00557135 
C        C      0.676400000000     0.230000000000     0.000000000000     0.00557135 
C        C      0.841700000000     0.064800000000     0.000000000000     0.00557135 
C        C      0.934000000000     0.976400000000     0.000000000000     0.00557135 
C        C      0.414800000000     0.689400000000     0.000000000000     0.00557135 
C        C      0.323600000000     0.770000000000     0.000000000000     0.00557135 
C        C      0.158300000000     0.935200000000     0.000000000000     0.00557135 
C        C      0.066000000000     0.023600000000     0.000000000000     0.00557135 
C        C      0.414800000000     0.310600000000     0.500000000000     0.00557135 
C        C      0.323600000000     0.230000000000     0.500000000000     0.00557135 
C        C      0.158300000000     0.064800000000     0.500000000000     0.00557135 
C        C      0.066000000000     0.976400000000     0.500000000000     0.00557135 
C        C      0.585200000000     0.689400000000     0.500000000000     0.00557135 
C        C      0.676400000000     0.770000000000     0.500000000000     0.00557135 
C        C      0.841700000000     0.935200000000     0.500000000000     0.00557135 
C        C      0.934000000000     0.023600000000     0.500000000000     0.00557135 
N        N      0.501010000000     0.379810000000     0.147650000000    -0.151064   
N        N      0.910800000000     0.859200000000     0.144700000000    -0.151064   
N        N      0.498990000000     0.620190000000     0.147650000000    -0.151064   
N        N      0.089200000000     0.140800000000     0.144700000000    -0.151064   
N        N      0.498990000000     0.379810000000     0.352350000000    -0.151064   
N        N      0.089200000000     0.859200000000     0.355300000000    -0.151064   
N        N      0.501010000000     0.620190000000     0.352350000000    -0.151064   
N        N      0.910800000000     0.140800000000     0.355300000000    -0.151064   
N        N      0.498990000000     0.620190000000     0.852350000000    -0.151064   
N        N      0.089200000000     0.140800000000     0.855300000000    -0.151064   
N        N      0.501010000000     0.379810000000     0.852350000000    -0.151064   
N        N      0.910800000000     0.859200000000     0.855300000000    -0.151064   
N        N      0.501010000000     0.620190000000     0.647650000000    -0.151064   
N        N      0.910800000000     0.140800000000     0.644700000000    -0.151064   
N        N      0.498990000000     0.379810000000     0.647650000000    -0.151064   
N        N      0.089200000000     0.859200000000     0.644700000000    -0.151064   
N        N      0.689700000000     0.500000000000     0.250000000000    -0.151064   
N        N      0.310300000000     0.500000000000     0.250000000000    -0.151064   
N        N      0.310300000000     0.500000000000     0.750000000000    -0.151064   
N        N      0.689700000000     0.500000000000     0.750000000000    -0.151064   


