data_MUWQEB_original

_audit_creation_method RASPA-1.0
_audit_creation_date 2022-1-31
_audit_author_name 'Felipe Lopes de Oliveira <felipe.lopes.oliveira@ibm.com>'

_cell_length_a    18.8235
_cell_length_b    18.8235
_cell_length_c    18.8235
_cell_angle_alpha 90
_cell_angle_beta  90
_cell_angle_gamma 90
_cell_volume      6669.62

_symmetry_cell_setting          triclinic
_symmetry_space_group_name_Hall 'P 1'
_symmetry_space_group_name_H-M  'P 1'
_symmetry_Int_Tables_number     1

_symmetry_equiv_pos_as_xyz 'x,y,z'

loop_
_atom_site_label
_atom_site_type_symbol
_atom_site_fract_x
_atom_site_fract_y
_atom_site_fract_z
_atom_site_charge
Fe       Fe     0.140710000000     0.000000000000     0.500000000000     0.56017    
Fe       Fe     0.859290000000     0.000000000000     0.500000000000     0.56017    
Fe       Fe     0.500000000000     0.140710000000     0.000000000000     0.56017    
Fe       Fe     0.500000000000     0.859290000000     0.000000000000     0.56017    
Fe       Fe     0.000000000000     0.500000000000     0.140710000000     0.56017    
Fe       Fe     0.000000000000     0.500000000000     0.859290000000     0.56017    
Fe       Fe     0.000000000000     0.140710000000     0.500000000000     0.56017    
Fe       Fe     0.000000000000     0.859290000000     0.500000000000     0.56017    
Fe       Fe     0.140710000000     0.500000000000     0.000000000000     0.56017    
Fe       Fe     0.859290000000     0.500000000000     0.000000000000     0.56017    
Fe       Fe     0.500000000000     0.000000000000     0.859290000000     0.56017    
Fe       Fe     0.500000000000     0.000000000000     0.140710000000     0.56017    
H        H      0.108100000000     0.260700000000     0.739300000000     0.0727252  
H        H      0.891900000000     0.739300000000     0.739300000000     0.0727252  
H        H      0.891900000000     0.260700000000     0.260700000000     0.0727252  
H        H      0.108100000000     0.739300000000     0.260700000000     0.0727252  
H        H      0.739300000000     0.108100000000     0.260700000000     0.0727252  
H        H      0.739300000000     0.891900000000     0.739300000000     0.0727252  
H        H      0.260700000000     0.891900000000     0.260700000000     0.0727252  
H        H      0.260700000000     0.108100000000     0.739300000000     0.0727252  
H        H      0.260700000000     0.739300000000     0.108100000000     0.0727252  
H        H      0.739300000000     0.739300000000     0.891900000000     0.0727252  
H        H      0.260700000000     0.260700000000     0.891900000000     0.0727252  
H        H      0.739300000000     0.260700000000     0.108100000000     0.0727252  
H        H      0.260700000000     0.108100000000     0.260700000000     0.0727252  
H        H      0.739300000000     0.891900000000     0.260700000000     0.0727252  
H        H      0.260700000000     0.891900000000     0.739300000000     0.0727252  
H        H      0.739300000000     0.108100000000     0.739300000000     0.0727252  
H        H      0.108100000000     0.739300000000     0.739300000000     0.0727252  
H        H      0.891900000000     0.739300000000     0.260700000000     0.0727252  
H        H      0.891900000000     0.260700000000     0.739300000000     0.0727252  
H        H      0.108100000000     0.260700000000     0.260700000000     0.0727252  
H        H      0.739300000000     0.260700000000     0.891900000000     0.0727252  
H        H      0.739300000000     0.739300000000     0.108100000000     0.0727252  
H        H      0.260700000000     0.260700000000     0.108100000000     0.0727252  
H        H      0.260700000000     0.739300000000     0.891900000000     0.0727252  
C        C      0.149560000000     0.240310000000     0.759690000000     0.0216323  
C        C      0.850440000000     0.759690000000     0.759690000000     0.0216323  
C        C      0.850440000000     0.240310000000     0.240310000000     0.0216323  
C        C      0.149560000000     0.759690000000     0.240310000000     0.0216323  
C        C      0.759690000000     0.149560000000     0.240310000000     0.0216323  
C        C      0.759690000000     0.850440000000     0.759690000000     0.0216323  
C        C      0.240310000000     0.850440000000     0.240310000000     0.0216323  
C        C      0.240310000000     0.149560000000     0.759690000000     0.0216323  
C        C      0.240310000000     0.759690000000     0.149560000000     0.0216323  
C        C      0.759690000000     0.759690000000     0.850440000000     0.0216323  
C        C      0.240310000000     0.240310000000     0.850440000000     0.0216323  
C        C      0.759690000000     0.240310000000     0.149560000000     0.0216323  
C        C      0.240310000000     0.149560000000     0.240310000000     0.0216323  
C        C      0.759690000000     0.850440000000     0.240310000000     0.0216323  
C        C      0.240310000000     0.850440000000     0.759690000000     0.0216323  
C        C      0.759690000000     0.149560000000     0.759690000000     0.0216323  
C        C      0.149560000000     0.759690000000     0.759690000000     0.0216323  
C        C      0.850440000000     0.759690000000     0.240310000000     0.0216323  
C        C      0.850440000000     0.240310000000     0.759690000000     0.0216323  
C        C      0.149560000000     0.240310000000     0.240310000000     0.0216323  
C        C      0.759690000000     0.240310000000     0.850440000000     0.0216323  
C        C      0.759690000000     0.759690000000     0.149560000000     0.0216323  
C        C      0.240310000000     0.240310000000     0.149560000000     0.0216323  
C        C      0.240310000000     0.759690000000     0.850440000000     0.0216323  
C        C      0.148810000000     0.148810000000     0.665720000000     0.0216323  
C        C      0.180030000000     0.180030000000     0.729420000000     0.0216323  
C        C      0.851190000000     0.851190000000     0.665720000000     0.0216323  
C        C      0.819970000000     0.819970000000     0.729420000000     0.0216323  
C        C      0.851190000000     0.148810000000     0.334280000000     0.0216323  
C        C      0.819970000000     0.180030000000     0.270580000000     0.0216323  
C        C      0.148810000000     0.851190000000     0.334280000000     0.0216323  
C        C      0.180030000000     0.819970000000     0.270580000000     0.0216323  
C        C      0.665720000000     0.148810000000     0.148810000000     0.0216323  
C        C      0.729420000000     0.180030000000     0.180030000000     0.0216323  
C        C      0.665720000000     0.851190000000     0.851190000000     0.0216323  
C        C      0.729420000000     0.819970000000     0.819970000000     0.0216323  
C        C      0.334280000000     0.851190000000     0.148810000000     0.0216323  
C        C      0.270580000000     0.819970000000     0.180030000000     0.0216323  
C        C      0.334280000000     0.148810000000     0.851190000000     0.0216323  
C        C      0.270580000000     0.180030000000     0.819970000000     0.0216323  
C        C      0.148810000000     0.665720000000     0.148810000000     0.0216323  
C        C      0.180030000000     0.729420000000     0.180030000000     0.0216323  
C        C      0.851190000000     0.665720000000     0.851190000000     0.0216323  
C        C      0.819970000000     0.729420000000     0.819970000000     0.0216323  
C        C      0.148810000000     0.334280000000     0.851190000000     0.0216323  
C        C      0.180030000000     0.270580000000     0.819970000000     0.0216323  
C        C      0.851190000000     0.334280000000     0.148810000000     0.0216323  
C        C      0.819970000000     0.270580000000     0.180030000000     0.0216323  
C        C      0.148810000000     0.148810000000     0.334280000000     0.0216323  
C        C      0.180030000000     0.180030000000     0.270580000000     0.0216323  
C        C      0.851190000000     0.851190000000     0.334280000000     0.0216323  
C        C      0.819970000000     0.819970000000     0.270580000000     0.0216323  
C        C      0.148810000000     0.851190000000     0.665720000000     0.0216323  
C        C      0.180030000000     0.819970000000     0.729420000000     0.0216323  
C        C      0.851190000000     0.148810000000     0.665720000000     0.0216323  
C        C      0.819970000000     0.180030000000     0.729420000000     0.0216323  
C        C      0.148810000000     0.665720000000     0.851190000000     0.0216323  
C        C      0.180030000000     0.729420000000     0.819970000000     0.0216323  
C        C      0.851190000000     0.665720000000     0.148810000000     0.0216323  
C        C      0.819970000000     0.729420000000     0.180030000000     0.0216323  
C        C      0.851190000000     0.334280000000     0.851190000000     0.0216323  
C        C      0.819970000000     0.270580000000     0.819970000000     0.0216323  
C        C      0.148810000000     0.334280000000     0.148810000000     0.0216323  
C        C      0.180030000000     0.270580000000     0.180030000000     0.0216323  
C        C      0.665720000000     0.148810000000     0.851190000000     0.0216323  
C        C      0.729420000000     0.180030000000     0.819970000000     0.0216323  
C        C      0.665720000000     0.851190000000     0.148810000000     0.0216323  
C        C      0.729420000000     0.819970000000     0.180030000000     0.0216323  
C        C      0.334280000000     0.148810000000     0.148810000000     0.0216323  
C        C      0.270580000000     0.180030000000     0.180030000000     0.0216323  
C        C      0.334280000000     0.851190000000     0.851190000000     0.0216323  
C        C      0.270580000000     0.819970000000     0.819970000000     0.0216323  
N        N      0.130830000000     0.081290000000     0.578310000000    -0.104427   
N        N      0.174580000000     0.091250000000     0.633330000000    -0.104427   
N        N      0.869170000000     0.918710000000     0.578310000000    -0.104427   
N        N      0.825420000000     0.908750000000     0.633330000000    -0.104427   
N        N      0.869170000000     0.081290000000     0.421690000000    -0.104427   
N        N      0.825420000000     0.091250000000     0.366670000000    -0.104427   
N        N      0.130830000000     0.918710000000     0.421690000000    -0.104427   
N        N      0.174580000000     0.908750000000     0.366670000000    -0.104427   
N        N      0.578310000000     0.130830000000     0.081290000000    -0.104427   
N        N      0.633330000000     0.174580000000     0.091250000000    -0.104427   
N        N      0.578310000000     0.869170000000     0.918710000000    -0.104427   
N        N      0.633330000000     0.825420000000     0.908750000000    -0.104427   
N        N      0.421690000000     0.869170000000     0.081290000000    -0.104427   
N        N      0.366670000000     0.825420000000     0.091250000000    -0.104427   
N        N      0.421690000000     0.130830000000     0.918710000000    -0.104427   
N        N      0.366670000000     0.174580000000     0.908750000000    -0.104427   
N        N      0.081290000000     0.578310000000     0.130830000000    -0.104427   
N        N      0.091250000000     0.633330000000     0.174580000000    -0.104427   
N        N      0.918710000000     0.578310000000     0.869170000000    -0.104427   
N        N      0.908750000000     0.633330000000     0.825420000000    -0.104427   
N        N      0.081290000000     0.421690000000     0.869170000000    -0.104427   
N        N      0.091250000000     0.366670000000     0.825420000000    -0.104427   
N        N      0.918710000000     0.421690000000     0.130830000000    -0.104427   
N        N      0.908750000000     0.366670000000     0.174580000000    -0.104427   
N        N      0.081290000000     0.130830000000     0.421690000000    -0.104427   
N        N      0.091250000000     0.174580000000     0.366670000000    -0.104427   
N        N      0.918710000000     0.869170000000     0.421690000000    -0.104427   
N        N      0.908750000000     0.825420000000     0.366670000000    -0.104427   
N        N      0.081290000000     0.869170000000     0.578310000000    -0.104427   
N        N      0.091250000000     0.825420000000     0.633330000000    -0.104427   
N        N      0.918710000000     0.130830000000     0.578310000000    -0.104427   
N        N      0.908750000000     0.174580000000     0.633330000000    -0.104427   
N        N      0.130830000000     0.578310000000     0.918710000000    -0.104427   
N        N      0.174580000000     0.633330000000     0.908750000000    -0.104427   
N        N      0.869170000000     0.578310000000     0.081290000000    -0.104427   
N        N      0.825420000000     0.633330000000     0.091250000000    -0.104427   
N        N      0.869170000000     0.421690000000     0.918710000000    -0.104427   
N        N      0.825420000000     0.366670000000     0.908750000000    -0.104427   
N        N      0.130830000000     0.421690000000     0.081290000000    -0.104427   
N        N      0.174580000000     0.366670000000     0.091250000000    -0.104427   
N        N      0.578310000000     0.081290000000     0.869170000000    -0.104427   
N        N      0.633330000000     0.091250000000     0.825420000000    -0.104427   
N        N      0.578310000000     0.918710000000     0.130830000000    -0.104427   
N        N      0.633330000000     0.908750000000     0.174580000000    -0.104427   
N        N      0.421690000000     0.081290000000     0.130830000000    -0.104427   
N        N      0.366670000000     0.091250000000     0.174580000000    -0.104427   
N        N      0.421690000000     0.918710000000     0.869170000000    -0.104427   
N        N      0.366670000000     0.908750000000     0.825420000000    -0.104427   
N        N      0.869170000000     0.918710000000     0.421690000000    -0.104427   
N        N      0.825420000000     0.908750000000     0.366670000000    -0.104427   
N        N      0.130830000000     0.081290000000     0.421690000000    -0.104427   
N        N      0.174580000000     0.091250000000     0.366670000000    -0.104427   
N        N      0.130830000000     0.918710000000     0.578310000000    -0.104427   
N        N      0.174580000000     0.908750000000     0.633330000000    -0.104427   
N        N      0.869170000000     0.081290000000     0.578310000000    -0.104427   
N        N      0.825420000000     0.091250000000     0.633330000000    -0.104427   
N        N      0.421690000000     0.869170000000     0.918710000000    -0.104427   
N        N      0.366670000000     0.825420000000     0.908750000000    -0.104427   
N        N      0.421690000000     0.130830000000     0.081290000000    -0.104427   
N        N      0.366670000000     0.174580000000     0.091250000000    -0.104427   
N        N      0.578310000000     0.130830000000     0.918710000000    -0.104427   
N        N      0.633330000000     0.174580000000     0.908750000000    -0.104427   
N        N      0.578310000000     0.869170000000     0.081290000000    -0.104427   
N        N      0.633330000000     0.825420000000     0.091250000000    -0.104427   
N        N      0.918710000000     0.421690000000     0.869170000000    -0.104427   
N        N      0.908750000000     0.366670000000     0.825420000000    -0.104427   
N        N      0.081290000000     0.421690000000     0.130830000000    -0.104427   
N        N      0.091250000000     0.366670000000     0.174580000000    -0.104427   
N        N      0.918710000000     0.578310000000     0.130830000000    -0.104427   
N        N      0.908750000000     0.633330000000     0.174580000000    -0.104427   
N        N      0.081290000000     0.578310000000     0.869170000000    -0.104427   
N        N      0.091250000000     0.633330000000     0.825420000000    -0.104427   
N        N      0.918710000000     0.869170000000     0.578310000000    -0.104427   
N        N      0.908750000000     0.825420000000     0.633330000000    -0.104427   
N        N      0.081290000000     0.130830000000     0.578310000000    -0.104427   
N        N      0.091250000000     0.174580000000     0.633330000000    -0.104427   
N        N      0.918710000000     0.130830000000     0.421690000000    -0.104427   
N        N      0.908750000000     0.174580000000     0.366670000000    -0.104427   
N        N      0.081290000000     0.869170000000     0.421690000000    -0.104427   
N        N      0.091250000000     0.825420000000     0.366670000000    -0.104427   
N        N      0.869170000000     0.421690000000     0.081290000000    -0.104427   
N        N      0.825420000000     0.366670000000     0.091250000000    -0.104427   
N        N      0.130830000000     0.421690000000     0.918710000000    -0.104427   
N        N      0.174580000000     0.366670000000     0.908750000000    -0.104427   
N        N      0.130830000000     0.578310000000     0.081290000000    -0.104427   
N        N      0.174580000000     0.633330000000     0.091250000000    -0.104427   
N        N      0.869170000000     0.578310000000     0.918710000000    -0.104427   
N        N      0.825420000000     0.633330000000     0.908750000000    -0.104427   
N        N      0.421690000000     0.918710000000     0.130830000000    -0.104427   
N        N      0.366670000000     0.908750000000     0.174580000000    -0.104427   
N        N      0.421690000000     0.081290000000     0.869170000000    -0.104427   
N        N      0.366670000000     0.091250000000     0.825420000000    -0.104427   
N        N      0.578310000000     0.918710000000     0.869170000000    -0.104427   
N        N      0.633330000000     0.908750000000     0.825420000000    -0.104427   
N        N      0.578310000000     0.081290000000     0.130830000000    -0.104427   
N        N      0.633330000000     0.091250000000     0.174580000000    -0.104427   


