data_NAKLIW_original

_audit_creation_method RASPA-1.0
_audit_creation_date 2022-1-28
_audit_author_name 'Felipe Lopes de Oliveira <felipe.lopes.oliveira@ibm.com>'

_cell_length_a    14.5049
_cell_length_b    17.1616
_cell_length_c    18.1389
_cell_angle_alpha 90
_cell_angle_beta  90
_cell_angle_gamma 90
_cell_volume      4515.27

_symmetry_cell_setting          triclinic
_symmetry_space_group_name_Hall 'P 1'
_symmetry_space_group_name_H-M  'P 1'
_symmetry_Int_Tables_number     1

_symmetry_equiv_pos_as_xyz 'x,y,z'

loop_
_atom_site_label
_atom_site_type_symbol
_atom_site_fract_x
_atom_site_fract_y
_atom_site_fract_z
_atom_site_charge
Zn       Zn     0.554790000000     0.938280000000     0.452250000000     0.456261   
Zn       Zn     0.346700000000     0.946120000000     0.397560000000     0.456261   
Zn       Zn     0.445210000000     0.438280000000     0.047750000000     0.456261   
Zn       Zn     0.653300000000     0.446120000000     0.102440000000     0.456261   
Zn       Zn     0.445210000000     0.061720000000     0.547750000000     0.456261   
Zn       Zn     0.653300000000     0.053880000000     0.602440000000     0.456261   
Zn       Zn     0.554790000000     0.561720000000     0.952250000000     0.456261   
Zn       Zn     0.346700000000     0.553880000000     0.897560000000     0.456261   
Zn       Zn     0.945210000000     0.061720000000     0.952250000000     0.456261   
Zn       Zn     0.153300000000     0.053880000000     0.897560000000     0.456261   
Zn       Zn     0.054790000000     0.561720000000     0.547750000000     0.456261   
Zn       Zn     0.846700000000     0.553880000000     0.602440000000     0.456261   
Zn       Zn     0.054790000000     0.938280000000     0.047750000000     0.456261   
Zn       Zn     0.846700000000     0.946120000000     0.102440000000     0.456261   
Zn       Zn     0.945210000000     0.438280000000     0.452250000000     0.456261   
Zn       Zn     0.153300000000     0.446120000000     0.397560000000     0.456261   
H        H      0.078600000000     0.062300000000     0.406500000000     0.0910139  
H        H      0.063400000000     0.891200000000     0.555700000000     0.0910139  
H        H      0.338000000000     0.730800000000     0.265100000000     0.0910139  
H        H      0.595100000000     0.723200000000     0.346300000000     0.0910139  
H        H      0.625100000000     0.614100000000     0.277000000000     0.0910139  
H        H      0.367100000000     0.621500000000     0.196200000000     0.0910139  
H        H      0.391000000000     0.938000000000     0.519000000000     0.0910139  
H        H      0.921400000000     0.562300000000     0.093500000000     0.0910139  
H        H      0.936600000000     0.391200000000     0.944300000000     0.0910139  
H        H      0.662000000000     0.230800000000     0.234900000000     0.0910139  
H        H      0.404900000000     0.223200000000     0.153700000000     0.0910139  
H        H      0.374900000000     0.114100000000     0.223000000000     0.0910139  
H        H      0.632900000000     0.121500000000     0.303800000000     0.0910139  
H        H      0.609000000000     0.438000000000     0.981000000000     0.0910139  
H        H      0.921400000000     0.937700000000     0.593500000000     0.0910139  
H        H      0.936600000000     0.108800000000     0.444300000000     0.0910139  
H        H      0.662000000000     0.269200000000     0.734900000000     0.0910139  
H        H      0.404900000000     0.276800000000     0.653700000000     0.0910139  
H        H      0.374900000000     0.385900000000     0.723000000000     0.0910139  
H        H      0.632900000000     0.378500000000     0.803800000000     0.0910139  
H        H      0.609000000000     0.062000000000     0.481000000000     0.0910139  
H        H      0.078600000000     0.437700000000     0.906500000000     0.0910139  
H        H      0.063400000000     0.608800000000     0.055700000000     0.0910139  
H        H      0.338000000000     0.769200000000     0.765100000000     0.0910139  
H        H      0.595100000000     0.776800000000     0.846300000000     0.0910139  
H        H      0.625100000000     0.885900000000     0.777000000000     0.0910139  
H        H      0.367100000000     0.878500000000     0.696200000000     0.0910139  
H        H      0.391000000000     0.562000000000     0.019000000000     0.0910139  
H        H      0.421400000000     0.937700000000     0.906500000000     0.0910139  
H        H      0.436600000000     0.108800000000     0.055700000000     0.0910139  
H        H      0.162000000000     0.269200000000     0.765100000000     0.0910139  
H        H      0.904900000000     0.276800000000     0.846300000000     0.0910139  
H        H      0.874900000000     0.385900000000     0.777000000000     0.0910139  
H        H      0.132900000000     0.378500000000     0.696200000000     0.0910139  
H        H      0.109000000000     0.062000000000     0.019000000000     0.0910139  
H        H      0.578600000000     0.437700000000     0.593500000000     0.0910139  
H        H      0.563400000000     0.608800000000     0.444300000000     0.0910139  
H        H      0.838000000000     0.769200000000     0.734900000000     0.0910139  
H        H      0.095100000000     0.776800000000     0.653700000000     0.0910139  
H        H      0.125100000000     0.885900000000     0.723000000000     0.0910139  
H        H      0.867100000000     0.878500000000     0.803800000000     0.0910139  
H        H      0.891000000000     0.562000000000     0.481000000000     0.0910139  
H        H      0.578600000000     0.062300000000     0.093500000000     0.0910139  
H        H      0.563400000000     0.891200000000     0.944300000000     0.0910139  
H        H      0.838000000000     0.730800000000     0.234900000000     0.0910139  
H        H      0.095100000000     0.723200000000     0.153700000000     0.0910139  
H        H      0.125100000000     0.614100000000     0.223000000000     0.0910139  
H        H      0.867100000000     0.621500000000     0.303800000000     0.0910139  
H        H      0.891000000000     0.938000000000     0.981000000000     0.0910139  
H        H      0.421400000000     0.562300000000     0.406500000000     0.0910139  
H        H      0.436600000000     0.391200000000     0.555700000000     0.0910139  
H        H      0.162000000000     0.230800000000     0.265100000000     0.0910139  
H        H      0.904900000000     0.223200000000     0.346300000000     0.0910139  
H        H      0.874900000000     0.114100000000     0.277000000000     0.0910139  
H        H      0.132900000000     0.121500000000     0.196200000000     0.0910139  
H        H      0.109000000000     0.438000000000     0.519000000000     0.0910139  
C        C      0.180700000000     0.944400000000     0.456500000000     0.0548665  
C        C      0.086800000000     0.972900000000     0.477900000000     0.0548665  
C        C      0.047400000000     0.037200000000     0.444400000000     0.0548665  
C        C      0.038400000000     0.935100000000     0.533400000000     0.0548665  
C        C      0.447600000000     0.813500000000     0.355100000000     0.0548665  
C        C      0.463500000000     0.739800000000     0.311900000000     0.0548665  
C        C      0.395900000000     0.707600000000     0.267200000000     0.0548665  
C        C      0.549600000000     0.703100000000     0.315700000000     0.0548665  
C        C      0.521300000000     0.539200000000     0.179100000000     0.0548665  
C        C      0.499800000000     0.606200000000     0.228600000000     0.0548665  
C        C      0.567400000000     0.637600000000     0.274400000000     0.0548665  
C        C      0.413200000000     0.642100000000     0.226000000000     0.0548665  
C        C      0.819300000000     0.444400000000     0.043500000000     0.0548665  
C        C      0.913200000000     0.472900000000     0.022100000000     0.0548665  
C        C      0.952600000000     0.537200000000     0.055600000000     0.0548665  
C        C      0.961600000000     0.435100000000     0.966600000000     0.0548665  
C        C      0.552400000000     0.313500000000     0.144900000000     0.0548665  
C        C      0.536500000000     0.239800000000     0.188100000000     0.0548665  
C        C      0.604100000000     0.207600000000     0.232800000000     0.0548665  
C        C      0.450400000000     0.203100000000     0.184300000000     0.0548665  
C        C      0.478700000000     0.039200000000     0.320900000000     0.0548665  
C        C      0.500200000000     0.106200000000     0.271400000000     0.0548665  
C        C      0.432600000000     0.137600000000     0.225600000000     0.0548665  
C        C      0.586800000000     0.142100000000     0.274000000000     0.0548665  
C        C      0.819300000000     0.055600000000     0.543500000000     0.0548665  
C        C      0.913200000000     0.027100000000     0.522100000000     0.0548665  
C        C      0.952600000000     0.962800000000     0.555600000000     0.0548665  
C        C      0.961600000000     0.064900000000     0.466600000000     0.0548665  
C        C      0.552400000000     0.186500000000     0.644900000000     0.0548665  
C        C      0.536500000000     0.260200000000     0.688100000000     0.0548665  
C        C      0.604100000000     0.292400000000     0.732800000000     0.0548665  
C        C      0.450400000000     0.296900000000     0.684300000000     0.0548665  
C        C      0.478700000000     0.460800000000     0.820900000000     0.0548665  
C        C      0.500200000000     0.393800000000     0.771400000000     0.0548665  
C        C      0.432600000000     0.362400000000     0.725600000000     0.0548665  
C        C      0.586800000000     0.357900000000     0.774000000000     0.0548665  
C        C      0.180700000000     0.555600000000     0.956500000000     0.0548665  
C        C      0.086800000000     0.527100000000     0.977900000000     0.0548665  
C        C      0.047400000000     0.462800000000     0.944400000000     0.0548665  
C        C      0.038400000000     0.564900000000     0.033400000000     0.0548665  
C        C      0.447600000000     0.686500000000     0.855100000000     0.0548665  
C        C      0.463500000000     0.760200000000     0.811900000000     0.0548665  
C        C      0.395900000000     0.792400000000     0.767200000000     0.0548665  
C        C      0.549600000000     0.796900000000     0.815700000000     0.0548665  
C        C      0.521300000000     0.960800000000     0.679100000000     0.0548665  
C        C      0.499800000000     0.893800000000     0.728600000000     0.0548665  
C        C      0.567400000000     0.862400000000     0.774400000000     0.0548665  
C        C      0.413200000000     0.857900000000     0.726000000000     0.0548665  
C        C      0.319300000000     0.055600000000     0.956500000000     0.0548665  
C        C      0.413200000000     0.027100000000     0.977900000000     0.0548665  
C        C      0.452600000000     0.962800000000     0.944400000000     0.0548665  
C        C      0.461600000000     0.064900000000     0.033400000000     0.0548665  
C        C      0.052400000000     0.186500000000     0.855100000000     0.0548665  
C        C      0.036500000000     0.260200000000     0.811900000000     0.0548665  
C        C      0.104100000000     0.292400000000     0.767200000000     0.0548665  
C        C      0.950400000000     0.296900000000     0.815700000000     0.0548665  
C        C      0.978700000000     0.460800000000     0.679100000000     0.0548665  
C        C      0.000200000000     0.393800000000     0.728600000000     0.0548665  
C        C      0.932600000000     0.362400000000     0.774400000000     0.0548665  
C        C      0.086800000000     0.357900000000     0.726000000000     0.0548665  
C        C      0.680700000000     0.555600000000     0.543500000000     0.0548665  
C        C      0.586800000000     0.527100000000     0.522100000000     0.0548665  
C        C      0.547400000000     0.462800000000     0.555600000000     0.0548665  
C        C      0.538400000000     0.564900000000     0.466600000000     0.0548665  
C        C      0.947600000000     0.686500000000     0.644900000000     0.0548665  
C        C      0.963500000000     0.760200000000     0.688100000000     0.0548665  
C        C      0.895900000000     0.792400000000     0.732800000000     0.0548665  
C        C      0.049600000000     0.796900000000     0.684300000000     0.0548665  
C        C      0.021300000000     0.960800000000     0.820900000000     0.0548665  
C        C      0.999800000000     0.893800000000     0.771400000000     0.0548665  
C        C      0.067400000000     0.862400000000     0.725600000000     0.0548665  
C        C      0.913200000000     0.857900000000     0.774000000000     0.0548665  
C        C      0.680700000000     0.944400000000     0.043500000000     0.0548665  
C        C      0.586800000000     0.972900000000     0.022100000000     0.0548665  
C        C      0.547400000000     0.037200000000     0.055600000000     0.0548665  
C        C      0.538400000000     0.935100000000     0.966600000000     0.0548665  
C        C      0.947600000000     0.813500000000     0.144900000000     0.0548665  
C        C      0.963500000000     0.739800000000     0.188100000000     0.0548665  
C        C      0.895900000000     0.707600000000     0.232800000000     0.0548665  
C        C      0.049600000000     0.703100000000     0.184300000000     0.0548665  
C        C      0.021300000000     0.539200000000     0.320900000000     0.0548665  
C        C      0.999800000000     0.606200000000     0.271400000000     0.0548665  
C        C      0.067400000000     0.637600000000     0.225600000000     0.0548665  
C        C      0.913200000000     0.642100000000     0.274000000000     0.0548665  
C        C      0.319300000000     0.444400000000     0.456500000000     0.0548665  
C        C      0.413200000000     0.472900000000     0.477900000000     0.0548665  
C        C      0.452600000000     0.537200000000     0.444400000000     0.0548665  
C        C      0.461600000000     0.435100000000     0.533400000000     0.0548665  
C        C      0.052400000000     0.313500000000     0.355100000000     0.0548665  
C        C      0.036500000000     0.239800000000     0.311900000000     0.0548665  
C        C      0.104100000000     0.207600000000     0.267200000000     0.0548665  
C        C      0.950400000000     0.203100000000     0.315700000000     0.0548665  
C        C      0.978700000000     0.039200000000     0.179100000000     0.0548665  
C        C      0.000200000000     0.106200000000     0.228600000000     0.0548665  
C        C      0.932600000000     0.137600000000     0.274400000000     0.0548665  
C        C      0.086800000000     0.142100000000     0.226000000000     0.0548665  
O        O      0.514500000000     0.841200000000     0.388700000000    -0.315431   
O        O      0.366700000000     0.841740000000     0.353500000000    -0.315431   
O        O      0.218800000000     0.979500000000     0.402700000000    -0.315431   
O        O      0.216800000000     0.890300000000     0.489200000000    -0.315431   
O        O      0.457800000000     0.512740000000     0.139560000000    -0.315431   
O        O      0.603100000000     0.514500000000     0.180110000000    -0.315431   
O        O      0.418800000000     0.960850000000     0.487100000000    -0.315431   
O        O      0.485500000000     0.341200000000     0.111300000000    -0.315431   
O        O      0.633300000000     0.341740000000     0.146500000000    -0.315431   
O        O      0.781200000000     0.479500000000     0.097300000000    -0.315431   
O        O      0.783200000000     0.390300000000     0.010800000000    -0.315431   
O        O      0.542200000000     0.012740000000     0.360440000000    -0.315431   
O        O      0.396900000000     0.014500000000     0.319890000000    -0.315431   
O        O      0.581200000000     0.460850000000     0.012900000000    -0.315431   
O        O      0.485500000000     0.158800000000     0.611300000000    -0.315431   
O        O      0.633300000000     0.158260000000     0.646500000000    -0.315431   
O        O      0.781200000000     0.020500000000     0.597300000000    -0.315431   
O        O      0.783200000000     0.109700000000     0.510800000000    -0.315431   
O        O      0.542200000000     0.487260000000     0.860440000000    -0.315431   
O        O      0.396900000000     0.485500000000     0.819890000000    -0.315431   
O        O      0.581200000000     0.039150000000     0.512900000000    -0.315431   
O        O      0.514500000000     0.658800000000     0.888700000000    -0.315431   
O        O      0.366700000000     0.658260000000     0.853500000000    -0.315431   
O        O      0.218800000000     0.520500000000     0.902700000000    -0.315431   
O        O      0.216800000000     0.609700000000     0.989200000000    -0.315431   
O        O      0.457800000000     0.987260000000     0.639560000000    -0.315431   
O        O      0.603100000000     0.985500000000     0.680110000000    -0.315431   
O        O      0.418800000000     0.539150000000     0.987100000000    -0.315431   
O        O      0.985500000000     0.158800000000     0.888700000000    -0.315431   
O        O      0.133300000000     0.158260000000     0.853500000000    -0.315431   
O        O      0.281200000000     0.020500000000     0.902700000000    -0.315431   
O        O      0.283200000000     0.109700000000     0.989200000000    -0.315431   
O        O      0.042200000000     0.487260000000     0.639560000000    -0.315431   
O        O      0.896900000000     0.485500000000     0.680110000000    -0.315431   
O        O      0.081200000000     0.039150000000     0.987100000000    -0.315431   
O        O      0.014500000000     0.658800000000     0.611300000000    -0.315431   
O        O      0.866700000000     0.658260000000     0.646500000000    -0.315431   
O        O      0.718800000000     0.520500000000     0.597300000000    -0.315431   
O        O      0.716800000000     0.609700000000     0.510800000000    -0.315431   
O        O      0.957800000000     0.987260000000     0.860440000000    -0.315431   
O        O      0.103100000000     0.985500000000     0.819890000000    -0.315431   
O        O      0.918800000000     0.539150000000     0.512900000000    -0.315431   
O        O      0.014500000000     0.841200000000     0.111300000000    -0.315431   
O        O      0.866700000000     0.841740000000     0.146500000000    -0.315431   
O        O      0.718800000000     0.979500000000     0.097300000000    -0.315431   
O        O      0.716800000000     0.890300000000     0.010800000000    -0.315431   
O        O      0.957800000000     0.512740000000     0.360440000000    -0.315431   
O        O      0.103100000000     0.514500000000     0.319890000000    -0.315431   
O        O      0.918800000000     0.960850000000     0.012900000000    -0.315431   
O        O      0.985500000000     0.341200000000     0.388700000000    -0.315431   
O        O      0.133300000000     0.341740000000     0.353500000000    -0.315431   
O        O      0.281200000000     0.479500000000     0.402700000000    -0.315431   
O        O      0.283200000000     0.390300000000     0.489200000000    -0.315431   
O        O      0.042200000000     0.012740000000     0.139560000000    -0.315431   
O        O      0.896900000000     0.014500000000     0.180110000000    -0.315431   
O        O      0.081200000000     0.460850000000     0.487100000000    -0.315431   


