data_NAQLAT_original

_audit_creation_method RASPA-1.0
_audit_creation_date 2022-1-31
_audit_author_name 'Felipe Lopes de Oliveira <felipe.lopes.oliveira@ibm.com>'

_cell_length_a    12.5583
_cell_length_b    14.5949
_cell_length_c    25.741
_cell_angle_alpha 100.093
_cell_angle_beta  90
_cell_angle_gamma 90
_cell_volume      4644.98

_symmetry_cell_setting          triclinic
_symmetry_space_group_name_Hall 'P 1'
_symmetry_space_group_name_H-M  'P 1'
_symmetry_Int_Tables_number     1

_symmetry_equiv_pos_as_xyz 'x,y,z'

loop_
_atom_site_label
_atom_site_type_symbol
_atom_site_fract_x
_atom_site_fract_y
_atom_site_fract_z
_atom_site_charge
Zn       Zn     0.104790000000     0.883440000000     0.876600000000     0.470017   
Zn       Zn     0.721390000000     0.017320000000     0.194490000000     0.470017   
Zn       Zn     0.924780000000     0.930050000000     0.470160000000     0.470017   
Zn       Zn     0.604790000000     0.616560000000     0.623400000000     0.470017   
Zn       Zn     0.221390000000     0.482680000000     0.305510000000     0.470017   
Zn       Zn     0.424780000000     0.569950000000     0.029840000000     0.470017   
Zn       Zn     0.895210000000     0.116560000000     0.123400000000     0.470017   
Zn       Zn     0.278610000000     0.982680000000     0.805510000000     0.470017   
Zn       Zn     0.075220000000     0.069950000000     0.529840000000     0.470017   
Zn       Zn     0.395210000000     0.383440000000     0.376600000000     0.470017   
Zn       Zn     0.778610000000     0.517320000000     0.694490000000     0.470017   
Zn       Zn     0.575220000000     0.430050000000     0.970160000000     0.470017   
H        H      0.819400000000     0.701400000000     0.312600000000     0.0517737  
H        H      0.590300000000     0.509100000000     0.451500000000     0.0517737  
H        H      0.047100000000     0.986800000000     0.683500000000     0.0517737  
H        H      0.774000000000     0.787400000000     0.493200000000     0.0517737  
H        H      0.611800000000     0.844600000000     0.209400000000     0.0517737  
H        H      0.709900000000     0.060200000000     0.312900000000     0.0517737  
H        H      0.889700000000     0.835200000000     0.358600000000     0.0517737  
H        H      0.517900000000     0.712400000000     0.238400000000     0.0517737  
H        H      0.717200000000     0.549400000000     0.312900000000     0.0517737  
H        H      0.451500000000     0.644400000000     0.306100000000     0.0517737  
H        H      0.626800000000     0.457200000000     0.362600000000     0.0517737  
H        H      0.648300000000     0.996300000000     0.382100000000     0.0517737  
H        H      0.662200000000     0.647100000000     0.495500000000     0.0517737  
H        H      0.471500000000     0.719600000000     0.394200000000     0.0517737  
H        H      0.556500000000     0.860400000000     0.414900000000     0.0517737  
H        H      0.927800000000     0.888800000000     0.009100000000     0.0517737  
H        H      0.909300000000     0.785500000000     0.750600000000     0.0517737  
H        H      0.684700000000     0.771200000000     0.076900000000     0.0517737  
H        H      0.831400000000     0.811700000000     0.601100000000     0.0517737  
H        H      0.805300000000     0.642500000000     0.937100000000     0.0517737  
H        H      0.319400000000     0.798600000000     0.187400000000     0.0517737  
H        H      0.090300000000     0.990900000000     0.048500000000     0.0517737  
H        H      0.547100000000     0.513200000000     0.816500000000     0.0517737  
H        H      0.274000000000     0.712600000000     0.006800000000     0.0517737  
H        H      0.111800000000     0.655400000000     0.290600000000     0.0517737  
H        H      0.209900000000     0.439800000000     0.187100000000     0.0517737  
H        H      0.389700000000     0.664800000000     0.141400000000     0.0517737  
H        H      0.017900000000     0.787600000000     0.261600000000     0.0517737  
H        H      0.217200000000     0.950600000000     0.187100000000     0.0517737  
H        H      0.951500000000     0.855600000000     0.193900000000     0.0517737  
H        H      0.126800000000     0.042800000000     0.137400000000     0.0517737  
H        H      0.148300000000     0.503700000000     0.117900000000     0.0517737  
H        H      0.162200000000     0.852900000000     0.004500000000     0.0517737  
H        H      0.971500000000     0.780400000000     0.105800000000     0.0517737  
H        H      0.056500000000     0.639600000000     0.085100000000     0.0517737  
H        H      0.427800000000     0.611200000000     0.490900000000     0.0517737  
H        H      0.409300000000     0.714500000000     0.749400000000     0.0517737  
H        H      0.184700000000     0.728800000000     0.423100000000     0.0517737  
H        H      0.331400000000     0.688300000000     0.898900000000     0.0517737  
H        H      0.305300000000     0.857500000000     0.562900000000     0.0517737  
H        H      0.180600000000     0.298600000000     0.687400000000     0.0517737  
H        H      0.409700000000     0.490900000000     0.548500000000     0.0517737  
H        H      0.952900000000     0.013200000000     0.316500000000     0.0517737  
H        H      0.226000000000     0.212600000000     0.506800000000     0.0517737  
H        H      0.388200000000     0.155400000000     0.790600000000     0.0517737  
H        H      0.290100000000     0.939800000000     0.687100000000     0.0517737  
H        H      0.110300000000     0.164800000000     0.641400000000     0.0517737  
H        H      0.482100000000     0.287600000000     0.761600000000     0.0517737  
H        H      0.282800000000     0.450600000000     0.687100000000     0.0517737  
H        H      0.548500000000     0.355600000000     0.693900000000     0.0517737  
H        H      0.373200000000     0.542800000000     0.637400000000     0.0517737  
H        H      0.351700000000     0.003700000000     0.617900000000     0.0517737  
H        H      0.337800000000     0.352900000000     0.504500000000     0.0517737  
H        H      0.528500000000     0.280400000000     0.605800000000     0.0517737  
H        H      0.443500000000     0.139600000000     0.585100000000     0.0517737  
H        H      0.072200000000     0.111200000000     0.990900000000     0.0517737  
H        H      0.090700000000     0.214500000000     0.249400000000     0.0517737  
H        H      0.315300000000     0.228800000000     0.923100000000     0.0517737  
H        H      0.168600000000     0.188300000000     0.398900000000     0.0517737  
H        H      0.194700000000     0.357500000000     0.062900000000     0.0517737  
H        H      0.680600000000     0.201400000000     0.812600000000     0.0517737  
H        H      0.909700000000     0.009100000000     0.951500000000     0.0517737  
H        H      0.452900000000     0.486800000000     0.183500000000     0.0517737  
H        H      0.726000000000     0.287400000000     0.993200000000     0.0517737  
H        H      0.888200000000     0.344600000000     0.709400000000     0.0517737  
H        H      0.790100000000     0.560200000000     0.812900000000     0.0517737  
H        H      0.610300000000     0.335200000000     0.858600000000     0.0517737  
H        H      0.982100000000     0.212400000000     0.738400000000     0.0517737  
H        H      0.782800000000     0.049400000000     0.812900000000     0.0517737  
H        H      0.048500000000     0.144400000000     0.806100000000     0.0517737  
H        H      0.873200000000     0.957200000000     0.862600000000     0.0517737  
H        H      0.851700000000     0.496300000000     0.882100000000     0.0517737  
H        H      0.837800000000     0.147100000000     0.995500000000     0.0517737  
H        H      0.028500000000     0.219600000000     0.894200000000     0.0517737  
H        H      0.943500000000     0.360400000000     0.914900000000     0.0517737  
H        H      0.572200000000     0.388800000000     0.509100000000     0.0517737  
H        H      0.590700000000     0.285500000000     0.250600000000     0.0517737  
H        H      0.815300000000     0.271200000000     0.576900000000     0.0517737  
H        H      0.668600000000     0.311700000000     0.101100000000     0.0517737  
H        H      0.694700000000     0.142500000000     0.437100000000     0.0517737  
C        C      0.576500000000     0.831500000000     0.285500000000     0.0407736  
C        C      0.809300000000     0.716700000000     0.349700000000     0.0407736  
C        C      0.054600000000     0.917300000000     0.772270000000     0.0407736  
C        C      0.633000000000     0.546200000000     0.432900000000     0.0407736  
C        C      0.733800000000     0.694900000000     0.007130000000     0.0407736  
C        C      0.956500000000     0.951100000000     0.587710000000     0.0407736  
C        C      0.654400000000     0.618100000000     0.006260000000     0.0407736  
C        C      0.986000000000     0.891400000000     0.724350000000     0.0407736  
C        C      0.998800000000     0.936200000000     0.681470000000     0.0407736  
C        C      0.940600000000     0.907000000000     0.635290000000     0.0407736  
C        C      0.751600000000     0.657700000000     0.376300000000     0.0407736  
C        C      0.783600000000     0.768900000000     0.456200000000     0.0407736  
C        C      0.618000000000     0.875500000000     0.244990000000     0.0407736  
C        C      0.675700000000     0.001300000000     0.305860000000     0.0407736  
C        C      0.850700000000     0.795500000000     0.377200000000     0.0407736  
C        C      0.525100000000     0.743100000000     0.273900000000     0.0407736  
C        C      0.707700000000     0.569400000000     0.349800000000     0.0407736  
C        C      0.734900000000     0.683000000000     0.430600000000     0.0407736  
C        C      0.486500000000     0.702900000000     0.313700000000     0.0407736  
C        C      0.652600000000     0.516300000000     0.379200000000     0.0407736  
C        C      0.639300000000     0.963800000000     0.347000000000     0.0407736  
C        C      0.588200000000     0.876700000000     0.337900000000     0.0407736  
C        C      0.674300000000     0.627800000000     0.458800000000     0.0407736  
C        C      0.498800000000     0.748400000000     0.366600000000     0.0407736  
C        C      0.548300000000     0.831900000000     0.379000000000     0.0407736  
C        C      0.877900000000     0.839600000000     0.008260000000     0.0407736  
C        C      0.917200000000     0.816300000000     0.721200000000     0.0407736  
C        C      0.877100000000     0.767200000000     0.965560000000     0.0407736  
C        C      0.807400000000     0.841600000000     0.049670000000     0.0407736  
C        C      0.734300000000     0.769400000000     0.048820000000     0.0407736  
C        C      0.859600000000     0.785600000000     0.674970000000     0.0407736  
C        C      0.871100000000     0.831700000000     0.632420000000     0.0407736  
C        C      0.805300000000     0.693600000000     0.965590000000     0.0407736  
C        C      0.951300000000     0.768600000000     0.919770000000     0.0407736  
C        C      0.809600000000     0.923200000000     0.093970000000     0.0407736  
C        C      0.791600000000     0.701800000000     0.669900000000     0.0407736  
C        C      0.076500000000     0.668500000000     0.214500000000     0.0407736  
C        C      0.309300000000     0.783300000000     0.150300000000     0.0407736  
C        C      0.554600000000     0.582700000000     0.727730000000     0.0407736  
C        C      0.133000000000     0.953800000000     0.067100000000     0.0407736  
C        C      0.233800000000     0.805100000000     0.492870000000     0.0407736  
C        C      0.456500000000     0.548900000000     0.912290000000     0.0407736  
C        C      0.154400000000     0.881900000000     0.493740000000     0.0407736  
C        C      0.486000000000     0.608600000000     0.775650000000     0.0407736  
C        C      0.498800000000     0.563800000000     0.818530000000     0.0407736  
C        C      0.440600000000     0.593000000000     0.864710000000     0.0407736  
C        C      0.251600000000     0.842300000000     0.123700000000     0.0407736  
C        C      0.283600000000     0.731100000000     0.043800000000     0.0407736  
C        C      0.118000000000     0.624500000000     0.255010000000     0.0407736  
C        C      0.175700000000     0.498700000000     0.194140000000     0.0407736  
C        C      0.350700000000     0.704500000000     0.122800000000     0.0407736  
C        C      0.025100000000     0.756900000000     0.226100000000     0.0407736  
C        C      0.207700000000     0.930600000000     0.150200000000     0.0407736  
C        C      0.234900000000     0.817000000000     0.069400000000     0.0407736  
C        C      0.986500000000     0.797100000000     0.186300000000     0.0407736  
C        C      0.152600000000     0.983700000000     0.120800000000     0.0407736  
C        C      0.139300000000     0.536200000000     0.153000000000     0.0407736  
C        C      0.088200000000     0.623300000000     0.162100000000     0.0407736  
C        C      0.174300000000     0.872200000000     0.041200000000     0.0407736  
C        C      0.998800000000     0.751600000000     0.133400000000     0.0407736  
C        C      0.048300000000     0.668100000000     0.121000000000     0.0407736  
C        C      0.377900000000     0.660400000000     0.491740000000     0.0407736  
C        C      0.417200000000     0.683700000000     0.778800000000     0.0407736  
C        C      0.377100000000     0.732800000000     0.534440000000     0.0407736  
C        C      0.307400000000     0.658400000000     0.450330000000     0.0407736  
C        C      0.234300000000     0.730600000000     0.451180000000     0.0407736  
C        C      0.359600000000     0.714400000000     0.825030000000     0.0407736  
C        C      0.371100000000     0.668300000000     0.867580000000     0.0407736  
C        C      0.305300000000     0.806400000000     0.534410000000     0.0407736  
C        C      0.451300000000     0.731400000000     0.580230000000     0.0407736  
C        C      0.309600000000     0.576800000000     0.406030000000     0.0407736  
C        C      0.291600000000     0.798200000000     0.830100000000     0.0407736  
C        C      0.423500000000     0.168500000000     0.714500000000     0.0407736  
C        C      0.190700000000     0.283300000000     0.650300000000     0.0407736  
C        C      0.945400000000     0.082700000000     0.227730000000     0.0407736  
C        C      0.367000000000     0.453800000000     0.567100000000     0.0407736  
C        C      0.266200000000     0.305100000000     0.992870000000     0.0407736  
C        C      0.043500000000     0.048900000000     0.412290000000     0.0407736  
C        C      0.345600000000     0.381900000000     0.993740000000     0.0407736  
C        C      0.014000000000     0.108600000000     0.275650000000     0.0407736  
C        C      0.001200000000     0.063800000000     0.318530000000     0.0407736  
C        C      0.059400000000     0.093000000000     0.364710000000     0.0407736  
C        C      0.248400000000     0.342300000000     0.623700000000     0.0407736  
C        C      0.216400000000     0.231100000000     0.543800000000     0.0407736  
C        C      0.382000000000     0.124500000000     0.755010000000     0.0407736  
C        C      0.324300000000     0.998700000000     0.694140000000     0.0407736  
C        C      0.149300000000     0.204500000000     0.622800000000     0.0407736  
C        C      0.474900000000     0.256900000000     0.726100000000     0.0407736  
C        C      0.292300000000     0.430600000000     0.650200000000     0.0407736  
C        C      0.265100000000     0.317000000000     0.569400000000     0.0407736  
C        C      0.513500000000     0.297100000000     0.686300000000     0.0407736  
C        C      0.347400000000     0.483700000000     0.620800000000     0.0407736  
C        C      0.360700000000     0.036200000000     0.653000000000     0.0407736  
C        C      0.411800000000     0.123300000000     0.662100000000     0.0407736  
C        C      0.325700000000     0.372200000000     0.541200000000     0.0407736  
C        C      0.501200000000     0.251600000000     0.633400000000     0.0407736  
C        C      0.451700000000     0.168100000000     0.621000000000     0.0407736  
C        C      0.122100000000     0.160400000000     0.991740000000     0.0407736  
C        C      0.082800000000     0.183700000000     0.278800000000     0.0407736  
C        C      0.122900000000     0.232800000000     0.034440000000     0.0407736  
C        C      0.192600000000     0.158400000000     0.950330000000     0.0407736  
C        C      0.265700000000     0.230600000000     0.951180000000     0.0407736  
C        C      0.140400000000     0.214400000000     0.325030000000     0.0407736  
C        C      0.128900000000     0.168300000000     0.367580000000     0.0407736  
C        C      0.194700000000     0.306400000000     0.034410000000     0.0407736  
C        C      0.048700000000     0.231400000000     0.080230000000     0.0407736  
C        C      0.190400000000     0.076800000000     0.906030000000     0.0407736  
C        C      0.208400000000     0.298200000000     0.330100000000     0.0407736  
C        C      0.923500000000     0.331500000000     0.785500000000     0.0407736  
C        C      0.690700000000     0.216700000000     0.849700000000     0.0407736  
C        C      0.445400000000     0.417300000000     0.272270000000     0.0407736  
C        C      0.867000000000     0.046200000000     0.932900000000     0.0407736  
C        C      0.766200000000     0.194900000000     0.507130000000     0.0407736  
C        C      0.543500000000     0.451100000000     0.087710000000     0.0407736  
C        C      0.845600000000     0.118100000000     0.506260000000     0.0407736  
C        C      0.514000000000     0.391400000000     0.224350000000     0.0407736  
C        C      0.501200000000     0.436200000000     0.181470000000     0.0407736  
C        C      0.559400000000     0.407000000000     0.135290000000     0.0407736  
C        C      0.748400000000     0.157700000000     0.876300000000     0.0407736  
C        C      0.716400000000     0.268900000000     0.956200000000     0.0407736  
C        C      0.882000000000     0.375500000000     0.744990000000     0.0407736  
C        C      0.824300000000     0.501300000000     0.805860000000     0.0407736  
C        C      0.649300000000     0.295500000000     0.877200000000     0.0407736  
C        C      0.974900000000     0.243100000000     0.773900000000     0.0407736  
C        C      0.792300000000     0.069400000000     0.849800000000     0.0407736  
C        C      0.765100000000     0.183000000000     0.930600000000     0.0407736  
C        C      0.013500000000     0.202900000000     0.813700000000     0.0407736  
C        C      0.847400000000     0.016300000000     0.879200000000     0.0407736  
C        C      0.860700000000     0.463800000000     0.847000000000     0.0407736  
C        C      0.911800000000     0.376700000000     0.837900000000     0.0407736  
C        C      0.825700000000     0.127800000000     0.958800000000     0.0407736  
C        C      0.001200000000     0.248400000000     0.866600000000     0.0407736  
C        C      0.951700000000     0.331900000000     0.879000000000     0.0407736  
C        C      0.622100000000     0.339600000000     0.508260000000     0.0407736  
C        C      0.582800000000     0.316300000000     0.221200000000     0.0407736  
C        C      0.622900000000     0.267200000000     0.465560000000     0.0407736  
C        C      0.692600000000     0.341600000000     0.549670000000     0.0407736  
C        C      0.765700000000     0.269400000000     0.548820000000     0.0407736  
C        C      0.640400000000     0.285600000000     0.174970000000     0.0407736  
C        C      0.628900000000     0.331700000000     0.132420000000     0.0407736  
C        C      0.694700000000     0.193600000000     0.465590000000     0.0407736  
C        C      0.548700000000     0.268600000000     0.419770000000     0.0407736  
C        C      0.690400000000     0.423200000000     0.593970000000     0.0407736  
C        C      0.708400000000     0.201800000000     0.169900000000     0.0407736  
N        N      0.665100000000     0.957600000000     0.254600000000    -0.15325    
N        N      0.839500000000     0.821600000000     0.431260000000    -0.15325    
N        N      0.165100000000     0.542400000000     0.245400000000    -0.15325    
N        N      0.339500000000     0.678400000000     0.068740000000    -0.15325    
N        N      0.334900000000     0.042400000000     0.745400000000    -0.15325    
N        N      0.160500000000     0.178400000000     0.568740000000    -0.15325    
N        N      0.834900000000     0.457600000000     0.754600000000    -0.15325    
N        N      0.660500000000     0.321600000000     0.931260000000    -0.15325    
O        O      0.753300000000     0.919000000000     0.133590000000    -0.300573   
O        O      0.790500000000     0.655400000000     0.706750000000    -0.300573   
O        O      0.013300000000     0.839400000000     0.926330000000    -0.300573   
O        O      0.031800000000     0.875000000000     0.809910000000    -0.300573   
O        O      0.127400000000     0.975600000000     0.771980000000    -0.300573   
O        O      0.909600000000     0.915500000000     0.546350000000    -0.300573   
O        O      0.570000000000     0.636900000000     0.030330000000    -0.300573   
O        O      0.017800000000     0.018500000000     0.592280000000    -0.300573   
O        O      0.676100000000     0.540200000000     0.980380000000    -0.300573   
O        O      0.739200000000     0.681200000000     0.627210000000    -0.300573   
O        O      0.868100000000     0.990000000000     0.087320000000    -0.300573   
O        O      0.947600000000     0.707100000000     0.881050000000    -0.300573   
O        O      0.253300000000     0.581000000000     0.366410000000    -0.300573   
O        O      0.290500000000     0.844600000000     0.793250000000    -0.300573   
O        O      0.513300000000     0.660600000000     0.573670000000    -0.300573   
O        O      0.531800000000     0.625000000000     0.690090000000    -0.300573   
O        O      0.627400000000     0.524400000000     0.728020000000    -0.300573   
O        O      0.409600000000     0.584500000000     0.953650000000    -0.300573   
O        O      0.070000000000     0.863100000000     0.469670000000    -0.300573   
O        O      0.517800000000     0.481500000000     0.907720000000    -0.300573   
O        O      0.176100000000     0.959800000000     0.519620000000    -0.300573   
O        O      0.239200000000     0.818800000000     0.872790000000    -0.300573   
O        O      0.368100000000     0.510000000000     0.412680000000    -0.300573   
O        O      0.447600000000     0.792900000000     0.618950000000    -0.300573   
O        O      0.246700000000     0.081000000000     0.866410000000    -0.300573   
O        O      0.209500000000     0.344600000000     0.293250000000    -0.300573   
O        O      0.986700000000     0.160600000000     0.073670000000    -0.300573   
O        O      0.968200000000     0.125000000000     0.190090000000    -0.300573   
O        O      0.872600000000     0.024400000000     0.228020000000    -0.300573   
O        O      0.090400000000     0.084500000000     0.453650000000    -0.300573   
O        O      0.430000000000     0.363100000000     0.969670000000    -0.300573   
O        O      0.982200000000     0.981500000000     0.407720000000    -0.300573   
O        O      0.323900000000     0.459800000000     0.019620000000    -0.300573   
O        O      0.260800000000     0.318800000000     0.372790000000    -0.300573   
O        O      0.131900000000     0.010000000000     0.912680000000    -0.300573   
O        O      0.052400000000     0.292900000000     0.118950000000    -0.300573   
O        O      0.746700000000     0.419000000000     0.633590000000    -0.300573   
O        O      0.709500000000     0.155400000000     0.206750000000    -0.300573   
O        O      0.486700000000     0.339400000000     0.426330000000    -0.300573   
O        O      0.468200000000     0.375000000000     0.309910000000    -0.300573   
O        O      0.372600000000     0.475600000000     0.271980000000    -0.300573   
O        O      0.590400000000     0.415500000000     0.046350000000    -0.300573   
O        O      0.930000000000     0.136900000000     0.530330000000    -0.300573   
O        O      0.482200000000     0.518500000000     0.092280000000    -0.300573   
O        O      0.823900000000     0.040200000000     0.480380000000    -0.300573   
O        O      0.760800000000     0.181200000000     0.127210000000    -0.300573   
O        O      0.631900000000     0.490000000000     0.587320000000    -0.300573   
O        O      0.552400000000     0.207100000000     0.381050000000    -0.300573   


