data_NARTUX_original

_audit_creation_method RASPA-1.0
_audit_creation_date 2022-1-28
_audit_author_name 'Felipe Lopes de Oliveira <felipe.lopes.oliveira@ibm.com>'

_cell_length_a    14.9596
_cell_length_b    16.8374
_cell_length_c    16.8374
_cell_angle_alpha 98.9184
_cell_angle_beta  94.3906
_cell_angle_gamma 94.3906
_cell_volume      4160.58

_symmetry_cell_setting          triclinic
_symmetry_space_group_name_Hall 'P 1'
_symmetry_space_group_name_H-M  'P 1'
_symmetry_Int_Tables_number     1

_symmetry_equiv_pos_as_xyz 'x,y,z'

loop_
_atom_site_label
_atom_site_type_symbol
_atom_site_fract_x
_atom_site_fract_y
_atom_site_fract_z
_atom_site_charge
Ca       Ca     0.640610000000     0.896760000000     0.744800000000     1.25974    
Ca       Ca     0.589860000000     0.652850000000     0.675410000000     1.25974    
Ca       Ca     0.181940000000     0.372110000000     0.871170000000     1.25974    
Ca       Ca     0.859390000000     0.255200000000     0.103240000000     1.25974    
Ca       Ca     0.910140000000     0.324590000000     0.347150000000     1.25974    
Ca       Ca     0.318060000000     0.128830000000     0.627890000000     1.25974    
Ca       Ca     0.359390000000     0.103240000000     0.255200000000     1.25974    
Ca       Ca     0.410140000000     0.347150000000     0.324590000000     1.25974    
Ca       Ca     0.818060000000     0.627890000000     0.128830000000     1.25974    
Ca       Ca     0.140610000000     0.744800000000     0.896760000000     1.25974    
Ca       Ca     0.089860000000     0.675410000000     0.652850000000     1.25974    
Ca       Ca     0.681940000000     0.871170000000     0.372110000000     1.25974    
H        H      0.523800000000     0.301900000000     0.731100000000     0.0867671  
H        H      0.722200000000     0.472200000000     0.716000000000     0.0867671  
H        H      0.765600000000     0.301500000000     0.853500000000     0.0867671  
H        H      0.558400000000     0.122200000000     0.928400000000     0.0867671  
H        H      0.655100000000     0.120300000000     0.970300000000     0.0867671  
H        H      0.419400000000     0.495700000000     0.601500000000     0.0867671  
H        H      0.350400000000     0.421700000000     0.604500000000     0.0867671  
H        H      0.971700000000     0.551500000000     0.855900000000     0.0867671  
H        H      0.996600000000     0.557600000000     0.768400000000     0.0867671  
H        H      0.607700000000     0.655500000000     0.108100000000     0.0867671  
H        H      0.465900000000     0.455600000000     0.144200000000     0.0867671  
H        H      0.362600000000     0.595400000000     0.993400000000     0.0867671  
H        H      0.421800000000     0.794000000000     0.863400000000     0.0867671  
H        H      0.511800000000     0.821600000000     0.918200000000     0.0867671  
H        H      0.758400000000     0.487300000000     0.263500000000     0.0867671  
H        H      0.698800000000     0.422300000000     0.297700000000     0.0867671  
H        H      0.165700000000     0.391000000000     0.102200000000     0.0867671  
H        H      0.222200000000     0.320900000000     0.067300000000     0.0867671  
H        H      0.667500000000     0.229200000000     0.927000000000     0.0867671  
H        H      0.499900000000     0.364800000000     0.592400000000     0.0867671  
H        H      0.855600000000     0.511800000000     0.761600000000     0.0867671  
H        H      0.424100000000     0.674600000000     0.913400000000     0.0867671  
H        H      0.590400000000     0.460500000000     0.239500000000     0.0867671  
H        H      0.293200000000     0.460900000000     0.155700000000     0.0867671  
H        H      0.976200000000     0.268900000000     0.698100000000     0.0867671  
H        H      0.777800000000     0.284000000000     0.527800000000     0.0867671  
H        H      0.734400000000     0.146500000000     0.698500000000     0.0867671  
H        H      0.941600000000     0.071600000000     0.877800000000     0.0867671  
H        H      0.844900000000     0.029700000000     0.879700000000     0.0867671  
H        H      0.080600000000     0.398500000000     0.504300000000     0.0867671  
H        H      0.149600000000     0.395500000000     0.578300000000     0.0867671  
H        H      0.528300000000     0.144100000000     0.448500000000     0.0867671  
H        H      0.503400000000     0.231600000000     0.442400000000     0.0867671  
H        H      0.892300000000     0.891900000000     0.344500000000     0.0867671  
H        H      0.034100000000     0.855800000000     0.544400000000     0.0867671  
H        H      0.137400000000     0.006600000000     0.404600000000     0.0867671  
H        H      0.078200000000     0.136600000000     0.206000000000     0.0867671  
H        H      0.988200000000     0.081800000000     0.178400000000     0.0867671  
H        H      0.741600000000     0.736500000000     0.512700000000     0.0867671  
H        H      0.801200000000     0.702300000000     0.577700000000     0.0867671  
H        H      0.334300000000     0.897800000000     0.609000000000     0.0867671  
H        H      0.277800000000     0.932700000000     0.679100000000     0.0867671  
H        H      0.832500000000     0.073000000000     0.770800000000     0.0867671  
H        H      0.000100000000     0.407600000000     0.635200000000     0.0867671  
H        H      0.644400000000     0.238400000000     0.488200000000     0.0867671  
H        H      0.075900000000     0.086600000000     0.325400000000     0.0867671  
H        H      0.909600000000     0.760500000000     0.539500000000     0.0867671  
H        H      0.206800000000     0.844300000000     0.539100000000     0.0867671  
H        H      0.476200000000     0.698100000000     0.268900000000     0.0867671  
H        H      0.277800000000     0.527800000000     0.284000000000     0.0867671  
H        H      0.234400000000     0.698500000000     0.146500000000     0.0867671  
H        H      0.441600000000     0.877800000000     0.071600000000     0.0867671  
H        H      0.344900000000     0.879700000000     0.029700000000     0.0867671  
H        H      0.580600000000     0.504300000000     0.398500000000     0.0867671  
H        H      0.649600000000     0.578300000000     0.395500000000     0.0867671  
H        H      0.028300000000     0.448500000000     0.144100000000     0.0867671  
H        H      0.003400000000     0.442400000000     0.231600000000     0.0867671  
H        H      0.392300000000     0.344500000000     0.891900000000     0.0867671  
H        H      0.534100000000     0.544400000000     0.855800000000     0.0867671  
H        H      0.637400000000     0.404600000000     0.006600000000     0.0867671  
H        H      0.578200000000     0.206000000000     0.136600000000     0.0867671  
H        H      0.488200000000     0.178400000000     0.081800000000     0.0867671  
H        H      0.241600000000     0.512700000000     0.736500000000     0.0867671  
H        H      0.301200000000     0.577700000000     0.702300000000     0.0867671  
H        H      0.834300000000     0.609000000000     0.897800000000     0.0867671  
H        H      0.777800000000     0.679100000000     0.932700000000     0.0867671  
H        H      0.332500000000     0.770800000000     0.073000000000     0.0867671  
H        H      0.500100000000     0.635200000000     0.407600000000     0.0867671  
H        H      0.144400000000     0.488200000000     0.238400000000     0.0867671  
H        H      0.575900000000     0.325400000000     0.086600000000     0.0867671  
H        H      0.409600000000     0.539500000000     0.760500000000     0.0867671  
H        H      0.706800000000     0.539100000000     0.844300000000     0.0867671  
H        H      0.023800000000     0.731100000000     0.301900000000     0.0867671  
H        H      0.222200000000     0.716000000000     0.472200000000     0.0867671  
H        H      0.265600000000     0.853500000000     0.301500000000     0.0867671  
H        H      0.058400000000     0.928400000000     0.122200000000     0.0867671  
H        H      0.155100000000     0.970300000000     0.120300000000     0.0867671  
H        H      0.919400000000     0.601500000000     0.495700000000     0.0867671  
H        H      0.850400000000     0.604500000000     0.421700000000     0.0867671  
H        H      0.471700000000     0.855900000000     0.551500000000     0.0867671  
H        H      0.496600000000     0.768400000000     0.557600000000     0.0867671  
H        H      0.107700000000     0.108100000000     0.655500000000     0.0867671  
H        H      0.965900000000     0.144200000000     0.455600000000     0.0867671  
H        H      0.862600000000     0.993400000000     0.595400000000     0.0867671  
H        H      0.921800000000     0.863400000000     0.794000000000     0.0867671  
H        H      0.011800000000     0.918200000000     0.821600000000     0.0867671  
H        H      0.258400000000     0.263500000000     0.487300000000     0.0867671  
H        H      0.198800000000     0.297700000000     0.422300000000     0.0867671  
H        H      0.665700000000     0.102200000000     0.391000000000     0.0867671  
H        H      0.722200000000     0.067300000000     0.320900000000     0.0867671  
H        H      0.167500000000     0.927000000000     0.229200000000     0.0867671  
H        H      0.999900000000     0.592400000000     0.364800000000     0.0867671  
H        H      0.355600000000     0.761600000000     0.511800000000     0.0867671  
H        H      0.924100000000     0.913400000000     0.674600000000     0.0867671  
H        H      0.090400000000     0.239500000000     0.460500000000     0.0867671  
H        H      0.793200000000     0.155700000000     0.460900000000     0.0867671  
C        C      0.639020000000     0.289880000000     0.798000000000     0.0681526  
C        C      0.582140000000     0.325200000000     0.746380000000     0.0681526  
C        C      0.611820000000     0.394600000000     0.717680000000     0.0681526  
C        C      0.701250000000     0.426800000000     0.736520000000     0.0681526  
C        C      0.758790000000     0.390700000000     0.786100000000     0.0681526  
C        C      0.727510000000     0.323760000000     0.818320000000     0.0681526  
C        C      0.599820000000     0.219410000000     0.831850000000     0.0681526  
C        C      0.621200000000     0.119170000000     0.918690000000     0.0681526  
C        C      0.630900000000     0.039640000000     0.865300000000     0.0681526  
C        C      0.548680000000     0.441720000000     0.674300000000     0.0681526  
C        C      0.408500000000     0.437570000000     0.587030000000     0.0681526  
C        C      0.404800000000     0.415210000000     0.495430000000     0.0681526  
C        C      0.853950000000     0.425430000000     0.814370000000     0.0681526  
C        C      0.979900000000     0.520030000000     0.804150000000     0.0681526  
C        C      0.056200000000     0.468760000000     0.815280000000     0.0681526  
C        C      0.488530000000     0.635560000000     0.042560000000     0.0681526  
C        C      0.556180000000     0.619730000000     0.096610000000     0.0681526  
C        C      0.550070000000     0.552880000000     0.134140000000     0.0681526  
C        C      0.471200000000     0.501180000000     0.119480000000     0.0681526  
C        C      0.400580000000     0.517800000000     0.068060000000     0.0681526  
C        C      0.409480000000     0.584820000000     0.028760000000     0.0681526  
C        C      0.509730000000     0.703650000000     0.997590000000     0.0681526  
C        C      0.475200000000     0.775010000000     0.888030000000     0.0681526  
C        C      0.527590000000     0.734750000000     0.822510000000     0.0681526  
C        C      0.632960000000     0.535470000000     0.182710000000     0.0681526  
C        C      0.714990000000     0.440490000000     0.248450000000     0.0681526  
C        C      0.759170000000     0.373910000000     0.198390000000     0.0681526  
C        C      0.315170000000     0.461210000000     0.052670000000     0.0681526  
C        C      0.220400000000     0.365080000000     0.111460000000     0.0681526  
C        C      0.218920000000     0.332060000000     0.189800000000     0.0681526  
C        C      0.860980000000     0.202000000000     0.710120000000     0.0681526  
C        C      0.917860000000     0.253620000000     0.674800000000     0.0681526  
C        C      0.888180000000     0.282320000000     0.605400000000     0.0681526  
C        C      0.798750000000     0.263480000000     0.573200000000     0.0681526  
C        C      0.741210000000     0.213900000000     0.609300000000     0.0681526  
C        C      0.772490000000     0.181680000000     0.676240000000     0.0681526  
C        C      0.900180000000     0.168150000000     0.780590000000     0.0681526  
C        C      0.878800000000     0.081310000000     0.880830000000     0.0681526  
C        C      0.869100000000     0.134700000000     0.960360000000     0.0681526  
C        C      0.951320000000     0.325700000000     0.558280000000     0.0681526  
C        C      0.091500000000     0.412970000000     0.562430000000     0.0681526  
C        C      0.095200000000     0.504570000000     0.584790000000     0.0681526  
C        C      0.646050000000     0.185630000000     0.574570000000     0.0681526  
C        C      0.520100000000     0.195850000000     0.479970000000     0.0681526  
C        C      0.443800000000     0.184720000000     0.531240000000     0.0681526  
C        C      0.011470000000     0.957440000000     0.364440000000     0.0681526  
C        C      0.943820000000     0.903390000000     0.380270000000     0.0681526  
C        C      0.949930000000     0.865860000000     0.447120000000     0.0681526  
C        C      0.028800000000     0.880520000000     0.498820000000     0.0681526  
C        C      0.099420000000     0.931940000000     0.482200000000     0.0681526  
C        C      0.090520000000     0.971240000000     0.415180000000     0.0681526  
C        C      0.990270000000     0.002410000000     0.296350000000     0.0681526  
C        C      0.024800000000     0.111970000000     0.224990000000     0.0681526  
C        C      0.972410000000     0.177490000000     0.265250000000     0.0681526  
C        C      0.867040000000     0.817290000000     0.464530000000     0.0681526  
C        C      0.785010000000     0.751550000000     0.559510000000     0.0681526  
C        C      0.740830000000     0.801610000000     0.626090000000     0.0681526  
C        C      0.184830000000     0.947330000000     0.538790000000     0.0681526  
C        C      0.279600000000     0.888540000000     0.634920000000     0.0681526  
C        C      0.281080000000     0.810200000000     0.667940000000     0.0681526  
C        C      0.360980000000     0.710120000000     0.202000000000     0.0681526  
C        C      0.417860000000     0.674800000000     0.253620000000     0.0681526  
C        C      0.388180000000     0.605400000000     0.282320000000     0.0681526  
C        C      0.298750000000     0.573200000000     0.263480000000     0.0681526  
C        C      0.241210000000     0.609300000000     0.213900000000     0.0681526  
C        C      0.272490000000     0.676240000000     0.181680000000     0.0681526  
C        C      0.400180000000     0.780590000000     0.168150000000     0.0681526  
C        C      0.378800000000     0.880830000000     0.081310000000     0.0681526  
C        C      0.369100000000     0.960360000000     0.134700000000     0.0681526  
C        C      0.451320000000     0.558280000000     0.325700000000     0.0681526  
C        C      0.591500000000     0.562430000000     0.412970000000     0.0681526  
C        C      0.595200000000     0.584790000000     0.504570000000     0.0681526  
C        C      0.146050000000     0.574570000000     0.185630000000     0.0681526  
C        C      0.020100000000     0.479970000000     0.195850000000     0.0681526  
C        C      0.943800000000     0.531240000000     0.184720000000     0.0681526  
C        C      0.511470000000     0.364440000000     0.957440000000     0.0681526  
C        C      0.443820000000     0.380270000000     0.903390000000     0.0681526  
C        C      0.449930000000     0.447120000000     0.865860000000     0.0681526  
C        C      0.528800000000     0.498820000000     0.880520000000     0.0681526  
C        C      0.599420000000     0.482200000000     0.931940000000     0.0681526  
C        C      0.590520000000     0.415180000000     0.971240000000     0.0681526  
C        C      0.490270000000     0.296350000000     0.002410000000     0.0681526  
C        C      0.524800000000     0.224990000000     0.111970000000     0.0681526  
C        C      0.472410000000     0.265250000000     0.177490000000     0.0681526  
C        C      0.367040000000     0.464530000000     0.817290000000     0.0681526  
C        C      0.285010000000     0.559510000000     0.751550000000     0.0681526  
C        C      0.240830000000     0.626090000000     0.801610000000     0.0681526  
C        C      0.684830000000     0.538790000000     0.947330000000     0.0681526  
C        C      0.779600000000     0.634920000000     0.888540000000     0.0681526  
C        C      0.781080000000     0.667940000000     0.810200000000     0.0681526  
C        C      0.139020000000     0.798000000000     0.289880000000     0.0681526  
C        C      0.082140000000     0.746380000000     0.325200000000     0.0681526  
C        C      0.111820000000     0.717680000000     0.394600000000     0.0681526  
C        C      0.201250000000     0.736520000000     0.426800000000     0.0681526  
C        C      0.258790000000     0.786100000000     0.390700000000     0.0681526  
C        C      0.227510000000     0.818320000000     0.323760000000     0.0681526  
C        C      0.099820000000     0.831850000000     0.219410000000     0.0681526  
C        C      0.121200000000     0.918690000000     0.119170000000     0.0681526  
C        C      0.130900000000     0.865300000000     0.039640000000     0.0681526  
C        C      0.048680000000     0.674300000000     0.441720000000     0.0681526  
C        C      0.908500000000     0.587030000000     0.437570000000     0.0681526  
C        C      0.904800000000     0.495430000000     0.415210000000     0.0681526  
C        C      0.353950000000     0.814370000000     0.425430000000     0.0681526  
C        C      0.479900000000     0.804150000000     0.520030000000     0.0681526  
C        C      0.556200000000     0.815280000000     0.468760000000     0.0681526  
C        C      0.988530000000     0.042560000000     0.635560000000     0.0681526  
C        C      0.056180000000     0.096610000000     0.619730000000     0.0681526  
C        C      0.050070000000     0.134140000000     0.552880000000     0.0681526  
C        C      0.971200000000     0.119480000000     0.501180000000     0.0681526  
C        C      0.900580000000     0.068060000000     0.517800000000     0.0681526  
C        C      0.909480000000     0.028760000000     0.584820000000     0.0681526  
C        C      0.009730000000     0.997590000000     0.703650000000     0.0681526  
C        C      0.975200000000     0.888030000000     0.775010000000     0.0681526  
C        C      0.027590000000     0.822510000000     0.734750000000     0.0681526  
C        C      0.132960000000     0.182710000000     0.535470000000     0.0681526  
C        C      0.214990000000     0.248450000000     0.440490000000     0.0681526  
C        C      0.259170000000     0.198390000000     0.373910000000     0.0681526  
C        C      0.815170000000     0.052670000000     0.461210000000     0.0681526  
C        C      0.720400000000     0.111460000000     0.365080000000     0.0681526  
C        C      0.718920000000     0.189800000000     0.332060000000     0.0681526  
N        N      0.651820000000     0.189210000000     0.885010000000    -0.186481   
N        N      0.477500000000     0.400140000000     0.629860000000    -0.186481   
N        N      0.894390000000     0.475490000000     0.771390000000    -0.186481   
N        N      0.448330000000     0.721350000000     0.943310000000    -0.186481   
N        N      0.635070000000     0.464370000000     0.207010000000    -0.186481   
N        N      0.297130000000     0.422410000000     0.112870000000    -0.186481   
N        N      0.848180000000     0.114990000000     0.810790000000    -0.186481   
N        N      0.022500000000     0.370140000000     0.599860000000    -0.186481   
N        N      0.605610000000     0.228610000000     0.524510000000    -0.186481   
N        N      0.051670000000     0.056690000000     0.278650000000    -0.186481   
N        N      0.864930000000     0.792990000000     0.535630000000    -0.186481   
N        N      0.202870000000     0.887130000000     0.577590000000    -0.186481   
N        N      0.348180000000     0.810790000000     0.114990000000    -0.186481   
N        N      0.522500000000     0.599860000000     0.370140000000    -0.186481   
N        N      0.105610000000     0.524510000000     0.228610000000    -0.186481   
N        N      0.551670000000     0.278650000000     0.056690000000    -0.186481   
N        N      0.364930000000     0.535630000000     0.792990000000    -0.186481   
N        N      0.702870000000     0.577590000000     0.887130000000    -0.186481   
N        N      0.151820000000     0.885010000000     0.189210000000    -0.186481   
N        N      0.977500000000     0.629860000000     0.400140000000    -0.186481   
N        N      0.394390000000     0.771390000000     0.475490000000    -0.186481   
N        N      0.948330000000     0.943310000000     0.721350000000    -0.186481   
N        N      0.135070000000     0.207010000000     0.464370000000    -0.186481   
N        N      0.797130000000     0.112870000000     0.422410000000    -0.186481   
O        O      0.520320000000     0.191880000000     0.811800000000    -0.377074   
O        O      0.670470000000     0.039370000000     0.801910000000    -0.377074   
O        O      0.598900000000     0.977010000000     0.886510000000    -0.377074   
O        O      0.560300000000     0.515780000000     0.685780000000    -0.377074   
O        O      0.340440000000     0.434850000000     0.454730000000    -0.377074   
O        O      0.466200000000     0.378350000000     0.466130000000    -0.377074   
O        O      0.891570000000     0.408350000000     0.876670000000    -0.377074   
O        O      0.060740000000     0.403660000000     0.769960000000    -0.377074   
O        O      0.116080000000     0.494890000000     0.871730000000    -0.377074   
O        O      0.585210000000     0.741650000000     0.008710000000    -0.377074   
O        O      0.526370000000     0.659420000000     0.809340000000    -0.377074   
O        O      0.568370000000     0.778930000000     0.780290000000    -0.377074   
O        O      0.698250000000     0.588010000000     0.197850000000    -0.377074   
O        O      0.835120000000     0.357280000000     0.227540000000    -0.377074   
O        O      0.722340000000     0.338390000000     0.132870000000    -0.377074   
O        O      0.268660000000     0.451390000000     0.988210000000    -0.377074   
O        O      0.275540000000     0.361330000000     0.246650000000    -0.377074   
O        O      0.156960000000     0.277380000000     0.191880000000    -0.377074   
O        O      0.979680000000     0.188200000000     0.808120000000    -0.377074   
O        O      0.829530000000     0.198090000000     0.960630000000    -0.377074   
O        O      0.901100000000     0.113490000000     0.022990000000    -0.377074   
O        O      0.939700000000     0.314220000000     0.484220000000    -0.377074   
O        O      0.159560000000     0.545270000000     0.565150000000    -0.377074   
O        O      0.033800000000     0.533870000000     0.621650000000    -0.377074   
O        O      0.608430000000     0.123330000000     0.591650000000    -0.377074   
O        O      0.439260000000     0.230040000000     0.596340000000    -0.377074   
O        O      0.383920000000     0.128270000000     0.505110000000    -0.377074   
O        O      0.914790000000     0.991290000000     0.258350000000    -0.377074   
O        O      0.973630000000     0.190660000000     0.340580000000    -0.377074   
O        O      0.931630000000     0.219710000000     0.221070000000    -0.377074   
O        O      0.801750000000     0.802150000000     0.411990000000    -0.377074   
O        O      0.664880000000     0.772460000000     0.642720000000    -0.377074   
O        O      0.777660000000     0.867130000000     0.661610000000    -0.377074   
O        O      0.231340000000     0.011790000000     0.548610000000    -0.377074   
O        O      0.224460000000     0.753350000000     0.638670000000    -0.377074   
O        O      0.343040000000     0.808120000000     0.722620000000    -0.377074   
O        O      0.479680000000     0.808120000000     0.188200000000    -0.377074   
O        O      0.329530000000     0.960630000000     0.198090000000    -0.377074   
O        O      0.401100000000     0.022990000000     0.113490000000    -0.377074   
O        O      0.439700000000     0.484220000000     0.314220000000    -0.377074   
O        O      0.659560000000     0.565150000000     0.545270000000    -0.377074   
O        O      0.533800000000     0.621650000000     0.533870000000    -0.377074   
O        O      0.108430000000     0.591650000000     0.123330000000    -0.377074   
O        O      0.939260000000     0.596340000000     0.230040000000    -0.377074   
O        O      0.883920000000     0.505110000000     0.128270000000    -0.377074   
O        O      0.414790000000     0.258350000000     0.991290000000    -0.377074   
O        O      0.473630000000     0.340580000000     0.190660000000    -0.377074   
O        O      0.431630000000     0.221070000000     0.219710000000    -0.377074   
O        O      0.301750000000     0.411990000000     0.802150000000    -0.377074   
O        O      0.164880000000     0.642720000000     0.772460000000    -0.377074   
O        O      0.277660000000     0.661610000000     0.867130000000    -0.377074   
O        O      0.731340000000     0.548610000000     0.011790000000    -0.377074   
O        O      0.724460000000     0.638670000000     0.753350000000    -0.377074   
O        O      0.843040000000     0.722620000000     0.808120000000    -0.377074   
O        O      0.020320000000     0.811800000000     0.191880000000    -0.377074   
O        O      0.170470000000     0.801910000000     0.039370000000    -0.377074   
O        O      0.098900000000     0.886510000000     0.977010000000    -0.377074   
O        O      0.060300000000     0.685780000000     0.515780000000    -0.377074   
O        O      0.840440000000     0.454730000000     0.434850000000    -0.377074   
O        O      0.966200000000     0.466130000000     0.378350000000    -0.377074   
O        O      0.391570000000     0.876670000000     0.408350000000    -0.377074   
O        O      0.560740000000     0.769960000000     0.403660000000    -0.377074   
O        O      0.616080000000     0.871730000000     0.494890000000    -0.377074   
O        O      0.085210000000     0.008710000000     0.741650000000    -0.377074   
O        O      0.026370000000     0.809340000000     0.659420000000    -0.377074   
O        O      0.068370000000     0.780290000000     0.778930000000    -0.377074   
O        O      0.198250000000     0.197850000000     0.588010000000    -0.377074   
O        O      0.335120000000     0.227540000000     0.357280000000    -0.377074   
O        O      0.222340000000     0.132870000000     0.338390000000    -0.377074   
O        O      0.768660000000     0.988210000000     0.451390000000    -0.377074   
O        O      0.775540000000     0.246650000000     0.361330000000    -0.377074   
O        O      0.656960000000     0.191880000000     0.277380000000    -0.377074   


