data_NAXLEF_original

_audit_creation_method RASPA-1.0
_audit_creation_date 2022-1-28
_audit_author_name 'Felipe Lopes de Oliveira <felipe.lopes.oliveira@ibm.com>'

_cell_length_a    6.5898
_cell_length_b    7.4814
_cell_length_c    10.5629
_cell_angle_alpha 110.74
_cell_angle_beta  104.688
_cell_angle_gamma 90
_cell_volume      468.772

_symmetry_cell_setting          triclinic
_symmetry_space_group_name_Hall 'P 1'
_symmetry_space_group_name_H-M  'P 1'
_symmetry_Int_Tables_number     1

_symmetry_equiv_pos_as_xyz 'x,y,z'

loop_
_atom_site_label
_atom_site_type_symbol
_atom_site_fract_x
_atom_site_fract_y
_atom_site_fract_z
_atom_site_charge
Al       Al     0.000000000000     0.000000000000     0.000000000000     5.50973    
Al       Al     0.500000000000     0.000000000000     0.000000000000     5.50973    
H        H      0.380430000000     0.955620000000     0.592000000000    -0.000318333
H        H      0.232340000000     0.891050000000     0.330160000000    -0.000318333
H        H      0.621580000000     0.078060000000     0.402750000000    -0.000318333
H        H      0.880430000000     0.636380000000     0.592000000000    -0.000318333
H        H      0.732340000000     0.439100000000     0.330150000000    -0.000318333
H        H      0.121580000000     0.324690000000     0.402750000000    -0.000318333
H        H      0.572250000000     0.115140000000     0.644560000000    -0.000318333
H        H      0.817210000000     0.251730000000     0.793370000000    -0.000318333
H        H      0.078470000000     0.462690000000     0.641030000000    -0.000318333
H        H      0.310990000000     0.608370000000     0.796910000000    -0.000318333
H        H      0.152940000000     0.242120000000     0.974020000000    -0.000318333
H        H      0.646180000000     0.804470000000     0.977870000000    -0.000318333
C        C      0.211000000000     0.983000000000     0.549800000000     0.210236   
C        C      0.873000000000     0.086500000000     0.590000000000     0.210236   
C        C      0.083000000000     0.052700000000     0.642400000000     0.210236   
C        C      0.129000000000     0.947200000000     0.404800000000     0.210236   
C        C      0.791000000000     0.050700000000     0.445000000000     0.210236   
C        C      0.919000000000     0.981000000000     0.352400000000     0.210236   
C        C      0.165000000000     0.088600000000     0.787600000000     0.210236   
C        C      0.837000000000     0.945100000000     0.207200000000     0.210236   
C        C      0.711000000000     0.566800000000     0.549800000000     0.210236   
C        C      0.373000000000     0.503500000000     0.590000000000     0.210236   
C        C      0.583000000000     0.589700000000     0.642400000000     0.210236   
C        C      0.629000000000     0.457600000000     0.404800000000     0.210236   
C        C      0.291000000000     0.394300000000     0.445000000000     0.210236   
C        C      0.419000000000     0.371400000000     0.352400000000     0.210236   
C        C      0.665000000000     0.699000000000     0.787600000000     0.210236   
C        C      0.337000000000     0.262100000000     0.207200000000     0.210236   
N        N      0.745000000000     0.156100000000     0.682600000000    -0.20965    
N        N      0.245000000000     0.526500000000     0.682600000000    -0.20965    
O        O      0.053000000000     0.149600000000     0.868800000000    -1.39601    
O        O      0.350000000000     0.058900000000     0.833600000000    -1.39601    
O        O      0.652000000000     0.974800000000     0.161200000000    -1.39601    
O        O      0.949000000000     0.884100000000     0.126000000000    -1.39601    
O        O      0.718000000000     0.111900000000     0.992800000000    -1.39601    
O        O      0.553000000000     0.719200000000     0.868800000000    -1.39601    
O        O      0.850000000000     0.774700000000     0.833600000000    -1.39601    
O        O      0.152000000000     0.186400000000     0.161200000000    -1.39601    
O        O      0.449000000000     0.241900000000     0.126000000000    -1.39601    
O        O      0.218000000000     0.880900000000     0.992800000000    -1.39601    


