data_NEHNEV01_original

_audit_creation_method RASPA-1.0
_audit_creation_date 2022-1-29
_audit_author_name 'Felipe Lopes de Oliveira <felipe.lopes.oliveira@ibm.com>'

_cell_length_a    8.981
_cell_length_b    12.2471
_cell_length_c    15.8888
_cell_angle_alpha 76.827
_cell_angle_beta  75.953
_cell_angle_gamma 79.384
_cell_volume      1635.31

_symmetry_cell_setting          triclinic
_symmetry_space_group_name_Hall 'P 1'
_symmetry_space_group_name_H-M  'P 1'
_symmetry_Int_Tables_number     1

_symmetry_equiv_pos_as_xyz 'x,y,z'

loop_
_atom_site_label
_atom_site_type_symbol
_atom_site_fract_x
_atom_site_fract_y
_atom_site_fract_z
_atom_site_charge
Zn       Zn     0.340110000000     0.353320000000     0.440380000000     0.477205   
Zn       Zn     0.659890000000     0.646680000000     0.559620000000     0.477205   
Zn       Zn     0.000000000000     0.500000000000     0.500000000000     0.477205   
H        H      0.727300000000     0.975800000000     0.144000000000     0.0721824  
H        H      0.627900000000     0.958600000000     0.077700000000     0.0721824  
H        H      0.100200000000     0.112400000000     0.171700000000     0.0721824  
H        H      0.740200000000     0.079100000000     0.949300000000     0.0721824  
H        H      0.867500000000     0.074900000000     0.006000000000     0.0721824  
H        H      0.029100000000     0.435500000000     0.701200000000     0.0721824  
H        H      0.214400000000     0.189600000000     0.257100000000     0.0721824  
H        H      0.571100000000     0.629400000000     0.266700000000     0.0721824  
H        H      0.653200000000     0.798700000000     0.183500000000     0.0721824  
H        H      0.500800000000     0.263500000000     0.012000000000     0.0721824  
H        H      0.465100000000     0.143600000000     0.003800000000     0.0721824  
H        H      0.407300000000     0.185900000000     0.096000000000     0.0721824  
H        H      0.603700000000     0.195700000000     0.183300000000     0.0721824  
H        H      0.681100000000     0.278300000000     0.096200000000     0.0721824  
H        H      0.702900000000     0.323700000000     0.228100000000     0.0721824  
H        H      0.251600000000     0.970100000000     0.295200000000     0.0721824  
H        H      0.163800000000     0.799700000000     0.368700000000     0.0721824  
H        H      0.667000000000     0.991000000000     0.385300000000     0.0721824  
H        H      0.941100000000     0.196900000000     0.475900000000     0.0721824  
H        H      0.676600000000     0.258000000000     0.489400000000     0.0721824  
H        H      0.965100000000     0.070200000000     0.857700000000     0.0721824  
H        H      0.125300000000     0.097700000000     0.718400000000     0.0721824  
H        H      0.441000000000     0.133800000000     0.360400000000     0.0721824  
H        H      0.813800000000     0.398000000000     0.317300000000     0.0721824  
H        H      0.826200000000     0.891000000000     0.482400000000     0.0721824  
H        H      0.866700000000     0.409000000000     0.841100000000     0.0721824  
H        H      0.272700000000     0.024200000000     0.856000000000     0.0721824  
H        H      0.372100000000     0.041400000000     0.922300000000     0.0721824  
H        H      0.899800000000     0.887600000000     0.828300000000     0.0721824  
H        H      0.259800000000     0.920900000000     0.050700000000     0.0721824  
H        H      0.132500000000     0.925100000000     0.994000000000     0.0721824  
H        H      0.970900000000     0.564500000000     0.298800000000     0.0721824  
H        H      0.785600000000     0.810400000000     0.742900000000     0.0721824  
H        H      0.428900000000     0.370600000000     0.733300000000     0.0721824  
H        H      0.346800000000     0.201300000000     0.816500000000     0.0721824  
H        H      0.499200000000     0.736500000000     0.988000000000     0.0721824  
H        H      0.534900000000     0.856400000000     0.996200000000     0.0721824  
H        H      0.592700000000     0.814100000000     0.904000000000     0.0721824  
H        H      0.396300000000     0.804300000000     0.816700000000     0.0721824  
H        H      0.318900000000     0.721700000000     0.903800000000     0.0721824  
H        H      0.297100000000     0.676300000000     0.771900000000     0.0721824  
H        H      0.748400000000     0.029900000000     0.704800000000     0.0721824  
H        H      0.836200000000     0.200300000000     0.631300000000     0.0721824  
H        H      0.333000000000     0.009000000000     0.614700000000     0.0721824  
H        H      0.058900000000     0.803100000000     0.524100000000     0.0721824  
H        H      0.323400000000     0.742000000000     0.510600000000     0.0721824  
H        H      0.034900000000     0.929800000000     0.142300000000     0.0721824  
H        H      0.874700000000     0.902300000000     0.281600000000     0.0721824  
H        H      0.559000000000     0.866200000000     0.639600000000     0.0721824  
H        H      0.186200000000     0.602000000000     0.682700000000     0.0721824  
H        H      0.173800000000     0.109000000000     0.517600000000     0.0721824  
H        H      0.133300000000     0.591000000000     0.158900000000     0.0721824  
C        C      0.644200000000     0.128100000000     0.070000000000     0.00636658 
C        C      0.633800000000     0.006400000000     0.119000000000     0.00636658 
C        C      0.900900000000     0.237900000000     0.862200000000     0.00636658 
C        C      0.042100000000     0.170400000000     0.201700000000     0.00636658 
C        C      0.772000000000     0.118900000000     0.988400000000     0.00636658 
C        C      0.015300000000     0.361000000000     0.732900000000     0.00636658 
C        C      0.889300000000     0.208500000000     0.194500000000     0.00636658 
C        C      0.025100000000     0.302000000000     0.296500000000     0.00636658 
C        C      0.110000000000     0.216200000000     0.252200000000     0.00636658 
C        C      0.504700000000     0.698700000000     0.271300000000     0.00636658 
C        C      0.554700000000     0.799200000000     0.222700000000     0.00636658 
C        C      0.460100000000     0.900300000000     0.231800000000     0.00636658 
C        C      0.192900000000     0.284600000000     0.605500000000     0.00636658 
C        C      0.490300000000     0.185500000000     0.043000000000     0.00636658 
C        C      0.682200000000     0.198400000000     0.127400000000     0.00636658 
C        C      0.304400000000     0.589700000000     0.379400000000     0.00636658 
C        C      0.805700000000     0.295100000000     0.235400000000     0.00636658 
C        C      0.315600000000     0.900500000000     0.287800000000     0.00636658 
C        C      0.265200000000     0.799600000000     0.332700000000     0.00636658 
C        C      0.360200000000     0.697400000000     0.326400000000     0.00636658 
C        C      0.641500000000     0.062200000000     0.403200000000     0.00636658 
C        C      0.965100000000     0.116800000000     0.485600000000     0.00636658 
C        C      0.864500000000     0.052800000000     0.475300000000     0.00636658 
C        C      0.645500000000     0.209300000000     0.460200000000     0.00636658 
C        C      0.092100000000     0.344700000000     0.357900000000     0.00636658 
C        C      0.977800000000     0.144700000000     0.825700000000     0.00636658 
C        C      0.071900000000     0.161100000000     0.743500000000     0.00636658 
C        C      0.090100000000     0.270200000000     0.696100000000     0.00636658 
C        C      0.518000000000     0.140600000000     0.389900000000     0.00636658 
C        C      0.872700000000     0.340100000000     0.287400000000     0.00636658 
C        C      0.897300000000     0.935100000000     0.489600000000     0.00636658 
C        C      0.919500000000     0.345400000000     0.816100000000     0.00636658 
C        C      0.355800000000     0.871900000000     0.930000000000     0.00636658 
C        C      0.366200000000     0.993600000000     0.881000000000     0.00636658 
C        C      0.099100000000     0.762100000000     0.137800000000     0.00636658 
C        C      0.957900000000     0.829600000000     0.798300000000     0.00636658 
C        C      0.228000000000     0.881100000000     0.011600000000     0.00636658 
C        C      0.984700000000     0.639000000000     0.267100000000     0.00636658 
C        C      0.110700000000     0.791500000000     0.805500000000     0.00636658 
C        C      0.974900000000     0.698000000000     0.703500000000     0.00636658 
C        C      0.890000000000     0.783800000000     0.747800000000     0.00636658 
C        C      0.495300000000     0.301300000000     0.728700000000     0.00636658 
C        C      0.445300000000     0.200800000000     0.777300000000     0.00636658 
C        C      0.539900000000     0.099700000000     0.768200000000     0.00636658 
C        C      0.807100000000     0.715400000000     0.394500000000     0.00636658 
C        C      0.509700000000     0.814500000000     0.957000000000     0.00636658 
C        C      0.317800000000     0.801600000000     0.872600000000     0.00636658 
C        C      0.695600000000     0.410300000000     0.620600000000     0.00636658 
C        C      0.194300000000     0.704900000000     0.764600000000     0.00636658 
C        C      0.684400000000     0.099500000000     0.712200000000     0.00636658 
C        C      0.734800000000     0.200400000000     0.667300000000     0.00636658 
C        C      0.639800000000     0.302600000000     0.673600000000     0.00636658 
C        C      0.358500000000     0.937800000000     0.596800000000     0.00636658 
C        C      0.034900000000     0.883200000000     0.514400000000     0.00636658 
C        C      0.135500000000     0.947200000000     0.524700000000     0.00636658 
C        C      0.354500000000     0.790700000000     0.539800000000     0.00636658 
C        C      0.907900000000     0.655300000000     0.642100000000     0.00636658 
C        C      0.022200000000     0.855300000000     0.174300000000     0.00636658 
C        C      0.928100000000     0.838900000000     0.256500000000     0.00636658 
C        C      0.909900000000     0.729800000000     0.303900000000     0.00636658 
C        C      0.482000000000     0.859400000000     0.610100000000     0.00636658 
C        C      0.127300000000     0.659900000000     0.712600000000     0.00636658 
C        C      0.102700000000     0.064900000000     0.510400000000     0.00636658 
C        C      0.080500000000     0.654600000000     0.183900000000     0.00636658 
N        N      0.722800000000     0.105700000000     0.447700000000    -0.145887   
N        N      0.521800000000     0.231900000000     0.425900000000    -0.145887   
N        N      0.277200000000     0.894300000000     0.552300000000    -0.145887   
N        N      0.478200000000     0.768100000000     0.574100000000    -0.145887   
O        O      0.498800000000     0.004900000000     0.188200000000    -0.278279   
O        O      0.833100000000     0.153600000000     0.145700000000    -0.278279   
O        O      0.232800000000     0.308300000000     0.361300000000    -0.278279   
O        O      0.400000000000     0.499200000000     0.377800000000    -0.278279   
O        O      0.004100000000     0.410600000000     0.404200000000    -0.278279   
O        O      0.182700000000     0.377000000000     0.551000000000    -0.278279   
O        O      0.284300000000     0.202800000000     0.582000000000    -0.278279   
O        O      0.800900000000     0.229900000000     0.942800000000    -0.278279   
O        O      0.168800000000     0.595500000000     0.423700000000    -0.278279   
O        O      0.501200000000     0.995100000000     0.811800000000    -0.278279   
O        O      0.166900000000     0.846400000000     0.854300000000    -0.278279   
O        O      0.767200000000     0.691700000000     0.638700000000    -0.278279   
O        O      0.600000000000     0.500800000000     0.622200000000    -0.278279   
O        O      0.995900000000     0.589400000000     0.595800000000    -0.278279   
O        O      0.817300000000     0.623000000000     0.449000000000    -0.278279   
O        O      0.715700000000     0.797200000000     0.418000000000    -0.278279   
O        O      0.199100000000     0.770100000000     0.057200000000    -0.278279   
O        O      0.831200000000     0.404500000000     0.576300000000    -0.278279   


