data_NIHBIQ_original

_audit_creation_method RASPA-1.0
_audit_creation_date 2022-1-31
_audit_author_name 'Felipe Lopes de Oliveira <felipe.lopes.oliveira@ibm.com>'

_cell_length_a    10.0224
_cell_length_b    11.4488
_cell_length_c    15.1754
_cell_angle_alpha 90.8601
_cell_angle_beta  90
_cell_angle_gamma 90
_cell_volume      1741.1

_symmetry_cell_setting          triclinic
_symmetry_space_group_name_Hall 'P 1'
_symmetry_space_group_name_H-M  'P 1'
_symmetry_Int_Tables_number     1

_symmetry_equiv_pos_as_xyz 'x,y,z'

loop_
_atom_site_label
_atom_site_type_symbol
_atom_site_fract_x
_atom_site_fract_y
_atom_site_fract_z
_atom_site_charge
Fe       Fe     0.926300000000     0.754320000000     0.134420000000     0.921368   
Fe       Fe     0.878770000000     0.259610000000     0.696740000000     0.921368   
Fe       Fe     0.426300000000     0.745680000000     0.365580000000     0.921368   
Fe       Fe     0.378770000000     0.240390000000     0.803260000000     0.921368   
Fe       Fe     0.073700000000     0.245680000000     0.865580000000     0.921368   
Fe       Fe     0.121230000000     0.740390000000     0.303260000000     0.921368   
Fe       Fe     0.573700000000     0.254320000000     0.634420000000     0.921368   
Fe       Fe     0.621230000000     0.759610000000     0.196740000000     0.921368   
Fe       Fe     0.000000000000     0.500000000000     0.000000000000     0.921368   
Fe       Fe     0.500000000000     0.000000000000     0.500000000000     0.921368   
Fe       Fe     0.000000000000     0.000000000000     0.000000000000     0.921368   
Fe       Fe     0.500000000000     0.500000000000     0.500000000000     0.921368   
H        H      0.773000000000     0.853400000000     0.368400000000    -0.0950595  
H        H      0.056000000000     0.476100000000     0.257100000000    -0.0950595  
H        H      0.628000000000     0.534500000000     0.075500000000    -0.0950595  
H        H      0.230000000000     0.964700000000     0.206700000000    -0.0950595  
H        H      0.128000000000     0.695600000000     0.916600000000    -0.0950595  
H        H      0.714000000000     0.995600000000     0.026600000000    -0.0950595  
H        H      0.273000000000     0.646600000000     0.131600000000    -0.0950595  
H        H      0.556000000000     0.023900000000     0.242900000000    -0.0950595  
H        H      0.128000000000     0.965500000000     0.424500000000    -0.0950595  
H        H      0.730000000000     0.535300000000     0.293300000000    -0.0950595  
H        H      0.628000000000     0.804400000000     0.583400000000    -0.0950595  
H        H      0.214000000000     0.504400000000     0.473400000000    -0.0950595  
H        H      0.227000000000     0.146600000000     0.631600000000    -0.0950595  
H        H      0.944000000000     0.523900000000     0.742900000000    -0.0950595  
H        H      0.372000000000     0.465500000000     0.924500000000    -0.0950595  
H        H      0.770000000000     0.035300000000     0.793300000000    -0.0950595  
H        H      0.872000000000     0.304400000000     0.083400000000    -0.0950595  
H        H      0.286000000000     0.004400000000     0.973400000000    -0.0950595  
H        H      0.727000000000     0.353400000000     0.868400000000    -0.0950595  
H        H      0.444000000000     0.976100000000     0.757100000000    -0.0950595  
H        H      0.872000000000     0.034500000000     0.575500000000    -0.0950595  
H        H      0.270000000000     0.464700000000     0.706700000000    -0.0950595  
H        H      0.372000000000     0.195600000000     0.416600000000    -0.0950595  
H        H      0.786000000000     0.495600000000     0.526600000000    -0.0950595  
C        C      0.842400000000     0.826110000000     0.329510000000     0.480018   
C        C      0.036800000000     0.518560000000     0.204160000000     0.480018   
C        C      0.717800000000     0.561760000000     0.069760000000     0.480018   
C        C      0.155800000000     0.940500000000     0.170300000000     0.480018   
C        C      0.083300000000     0.741420000000     0.961420000000     0.480018   
C        C      0.729900000000     0.935010000000     0.065710000000     0.480018   
C        C      0.342400000000     0.673890000000     0.170490000000     0.480018   
C        C      0.536800000000     0.981440000000     0.295840000000     0.480018   
C        C      0.217800000000     0.938240000000     0.430240000000     0.480018   
C        C      0.655800000000     0.559500000000     0.329700000000     0.480018   
C        C      0.583300000000     0.758580000000     0.538580000000     0.480018   
C        C      0.229900000000     0.564990000000     0.434290000000     0.480018   
C        C      0.157600000000     0.173890000000     0.670490000000     0.480018   
C        C      0.963200000000     0.481440000000     0.795840000000     0.480018   
C        C      0.282200000000     0.438240000000     0.930240000000     0.480018   
C        C      0.844200000000     0.059500000000     0.829700000000     0.480018   
C        C      0.916700000000     0.258580000000     0.038580000000     0.480018   
C        C      0.270100000000     0.064990000000     0.934290000000     0.480018   
C        C      0.657600000000     0.326110000000     0.829510000000     0.480018   
C        C      0.463200000000     0.018560000000     0.704160000000     0.480018   
C        C      0.782200000000     0.061760000000     0.569760000000     0.480018   
C        C      0.344200000000     0.440500000000     0.670300000000     0.480018   
C        C      0.416700000000     0.241420000000     0.461420000000     0.480018   
C        C      0.770100000000     0.435010000000     0.565710000000     0.480018   
O        O      0.811400000000     0.807370000000     0.249030000000    -0.422821   
O        O      0.953810000000     0.811030000000     0.363050000000    -0.422821   
O        O      0.014870000000     0.627760000000     0.214480000000    -0.422821   
O        O      0.029010000000     0.462770000000     0.134490000000    -0.422821   
O        O      0.749990000000     0.649800000000     0.118600000000    -0.422821   
O        O      0.793460000000     0.507320000000     0.019790000000    -0.422821   
O        O      0.093900000000     0.846740000000     0.189560000000    -0.422821   
O        O      0.131860000000     0.005080000000     0.108140000000    -0.422821   
O        O      0.018470000000     0.686360000000     0.020790000000    -0.422821   
O        O      0.091630000000     0.848460000000     0.954560000000    -0.422821   
O        O      0.850860000000     0.899910000000     0.069350000000    -0.422821   
O        O      0.633330000000     0.894170000000     0.105670000000    -0.422821   
O        O      0.311400000000     0.692630000000     0.250970000000    -0.422821   
O        O      0.453810000000     0.688970000000     0.136950000000    -0.422821   
O        O      0.514870000000     0.872240000000     0.285520000000    -0.422821   
O        O      0.529010000000     0.037230000000     0.365510000000    -0.422821   
O        O      0.249990000000     0.850200000000     0.381400000000    -0.422821   
O        O      0.293460000000     0.992680000000     0.480210000000    -0.422821   
O        O      0.593900000000     0.653260000000     0.310440000000    -0.422821   
O        O      0.631860000000     0.494920000000     0.391860000000    -0.422821   
O        O      0.518470000000     0.813640000000     0.479210000000    -0.422821   
O        O      0.591630000000     0.651540000000     0.545440000000    -0.422821   
O        O      0.350860000000     0.600090000000     0.430650000000    -0.422821   
O        O      0.133330000000     0.605830000000     0.394330000000    -0.422821   
O        O      0.188600000000     0.192630000000     0.750970000000    -0.422821   
O        O      0.046190000000     0.188970000000     0.636950000000    -0.422821   
O        O      0.985130000000     0.372240000000     0.785520000000    -0.422821   
O        O      0.970990000000     0.537230000000     0.865510000000    -0.422821   
O        O      0.250010000000     0.350200000000     0.881400000000    -0.422821   
O        O      0.206540000000     0.492680000000     0.980210000000    -0.422821   
O        O      0.906100000000     0.153260000000     0.810440000000    -0.422821   
O        O      0.868140000000     0.994920000000     0.891860000000    -0.422821   
O        O      0.981530000000     0.313640000000     0.979210000000    -0.422821   
O        O      0.908370000000     0.151540000000     0.045440000000    -0.422821   
O        O      0.149140000000     0.100090000000     0.930650000000    -0.422821   
O        O      0.366670000000     0.105830000000     0.894330000000    -0.422821   
O        O      0.688600000000     0.307370000000     0.749030000000    -0.422821   
O        O      0.546190000000     0.311030000000     0.863050000000    -0.422821   
O        O      0.485130000000     0.127760000000     0.714480000000    -0.422821   
O        O      0.470990000000     0.962770000000     0.634490000000    -0.422821   
O        O      0.750010000000     0.149800000000     0.618600000000    -0.422821   
O        O      0.706540000000     0.007320000000     0.519790000000    -0.422821   
O        O      0.406100000000     0.346740000000     0.689560000000    -0.422821   
O        O      0.368140000000     0.505080000000     0.608140000000    -0.422821   
O        O      0.481530000000     0.186360000000     0.520790000000    -0.422821   
O        O      0.408370000000     0.348460000000     0.454560000000    -0.422821   
O        O      0.649140000000     0.399910000000     0.569350000000    -0.422821   
O        O      0.866670000000     0.394170000000     0.605670000000    -0.422821   


