data_NIHBEM_original

_audit_creation_method RASPA-1.0
_audit_creation_date 2022-1-30
_audit_author_name 'Felipe Lopes de Oliveira <felipe.lopes.oliveira@ibm.com>'

_cell_length_a    9.8459
_cell_length_b    11.2911
_cell_length_c    14.825
_cell_angle_alpha 90.8266
_cell_angle_beta  90
_cell_angle_gamma 90
_cell_volume      1647.94

_symmetry_cell_setting          triclinic
_symmetry_space_group_name_Hall 'P 1'
_symmetry_space_group_name_H-M  'P 1'
_symmetry_Int_Tables_number     1

_symmetry_equiv_pos_as_xyz 'x,y,z'

loop_
_atom_site_label
_atom_site_type_symbol
_atom_site_fract_x
_atom_site_fract_y
_atom_site_fract_z
_atom_site_charge
Fe       Fe     0.918760000000     0.755080000000     0.133500000000     0.91825    
Fe       Fe     0.892160000000     0.262220000000     0.690050000000     0.91825    
Fe       Fe     0.418760000000     0.744920000000     0.366500000000     0.91825    
Fe       Fe     0.392160000000     0.237780000000     0.809950000000     0.91825    
Fe       Fe     0.081240000000     0.244920000000     0.866500000000     0.91825    
Fe       Fe     0.107840000000     0.737780000000     0.309950000000     0.91825    
Fe       Fe     0.581240000000     0.255080000000     0.633500000000     0.91825    
Fe       Fe     0.607840000000     0.762220000000     0.190050000000     0.91825    
Fe       Fe     0.000000000000     0.500000000000     0.000000000000     0.91825    
Fe       Fe     0.500000000000     0.000000000000     0.500000000000     0.91825    
Fe       Fe     0.000000000000     0.000000000000     0.000000000000     0.91825    
Fe       Fe     0.500000000000     0.500000000000     0.500000000000     0.91825    
H        H      0.754000000000     0.869100000000     0.364100000000    -0.0910898  
H        H      0.030000000000     0.469400000000     0.264400000000    -0.0910898  
H        H      0.613000000000     0.551900000000     0.045900000000    -0.0910898  
H        H      0.207000000000     0.979700000000     0.225700000000    -0.0910898  
H        H      0.154000000000     0.689700000000     0.931700000000    -0.0910898  
H        H      0.703000000000     0.988000000000     0.007000000000    -0.0910898  
H        H      0.254000000000     0.630900000000     0.135900000000    -0.0910898  
H        H      0.530000000000     0.030600000000     0.235600000000    -0.0910898  
H        H      0.113000000000     0.948100000000     0.454100000000    -0.0910898  
H        H      0.707000000000     0.520300000000     0.274300000000    -0.0910898  
H        H      0.654000000000     0.810300000000     0.568300000000    -0.0910898  
H        H      0.203000000000     0.512000000000     0.493000000000    -0.0910898  
H        H      0.246000000000     0.130900000000     0.635900000000    -0.0910898  
H        H      0.970000000000     0.530600000000     0.735600000000    -0.0910898  
H        H      0.387000000000     0.448100000000     0.954100000000    -0.0910898  
H        H      0.793000000000     0.020300000000     0.774300000000    -0.0910898  
H        H      0.846000000000     0.310300000000     0.068300000000    -0.0910898  
H        H      0.297000000000     0.012000000000     0.993000000000    -0.0910898  
H        H      0.746000000000     0.369100000000     0.864100000000    -0.0910898  
H        H      0.470000000000     0.969400000000     0.764400000000    -0.0910898  
H        H      0.887000000000     0.051900000000     0.545900000000    -0.0910898  
H        H      0.293000000000     0.479700000000     0.725700000000    -0.0910898  
H        H      0.346000000000     0.189700000000     0.431700000000    -0.0910898  
H        H      0.797000000000     0.488000000000     0.507000000000    -0.0910898  
C        C      0.826300000000     0.833070000000     0.329870000000     0.474188   
C        C      0.016900000000     0.513150000000     0.210150000000     0.474188   
C        C      0.708400000000     0.571510000000     0.053210000000     0.474188   
C        C      0.134200000000     0.952670000000     0.183870000000     0.474188   
C        C      0.105000000000     0.743050000000     0.968950000000     0.474188   
C        C      0.717400000000     0.929940000000     0.051440000000     0.474188   
C        C      0.326300000000     0.666930000000     0.170130000000     0.474188   
C        C      0.516900000000     0.986850000000     0.289850000000     0.474188   
C        C      0.208400000000     0.928490000000     0.446790000000     0.474188   
C        C      0.634200000000     0.547330000000     0.316130000000     0.474188   
C        C      0.605000000000     0.756950000000     0.531050000000     0.474188   
C        C      0.217400000000     0.570060000000     0.448560000000     0.474188   
C        C      0.173700000000     0.166930000000     0.670130000000     0.474188   
C        C      0.983100000000     0.486850000000     0.789850000000     0.474188   
C        C      0.291600000000     0.428490000000     0.946790000000     0.474188   
C        C      0.865800000000     0.047330000000     0.816130000000     0.474188   
C        C      0.895000000000     0.256950000000     0.031050000000     0.474188   
C        C      0.282600000000     0.070060000000     0.948560000000     0.474188   
C        C      0.673700000000     0.333070000000     0.829870000000     0.474188   
C        C      0.483100000000     0.013150000000     0.710150000000     0.474188   
C        C      0.791600000000     0.071510000000     0.553210000000     0.474188   
C        C      0.365800000000     0.452670000000     0.683870000000     0.474188   
C        C      0.395000000000     0.243050000000     0.468950000000     0.474188   
C        C      0.782600000000     0.429940000000     0.551440000000     0.474188   
O        O      0.799130000000     0.811430000000     0.246850000000    -0.421112   
O        O      0.936770000000     0.813710000000     0.367910000000    -0.421112   
O        O      0.002350000000     0.624360000000     0.218030000000    -0.421112   
O        O      0.006930000000     0.454860000000     0.138860000000    -0.421112   
O        O      0.740170000000     0.650290000000     0.111750000000    -0.421112   
O        O      0.788940000000     0.515670000000     0.004270000000    -0.421112   
O        O      0.084840000000     0.849630000000     0.194390000000    -0.421112   
O        O      0.107440000000     0.021010000000     0.121910000000    -0.421112   
O        O      0.026430000000     0.686830000000     0.023170000000    -0.421112   
O        O      0.114990000000     0.850950000000     0.962850000000    -0.421112   
O        O      0.840970000000     0.896850000000     0.061150000000    -0.421112   
O        O      0.618180000000     0.894620000000     0.094920000000    -0.421112   
O        O      0.299130000000     0.688570000000     0.253150000000    -0.421112   
O        O      0.436770000000     0.686290000000     0.132090000000    -0.421112   
O        O      0.502350000000     0.875640000000     0.281970000000    -0.421112   
O        O      0.506930000000     0.045140000000     0.361140000000    -0.421112   
O        O      0.240170000000     0.849710000000     0.388250000000    -0.421112   
O        O      0.288940000000     0.984330000000     0.495730000000    -0.421112   
O        O      0.584840000000     0.650370000000     0.305610000000    -0.421112   
O        O      0.607440000000     0.478990000000     0.378090000000    -0.421112   
O        O      0.526430000000     0.813170000000     0.476830000000    -0.421112   
O        O      0.614990000000     0.649050000000     0.537150000000    -0.421112   
O        O      0.340970000000     0.603150000000     0.438850000000    -0.421112   
O        O      0.118180000000     0.605380000000     0.405080000000    -0.421112   
O        O      0.200870000000     0.188570000000     0.753150000000    -0.421112   
O        O      0.063230000000     0.186290000000     0.632090000000    -0.421112   
O        O      0.997650000000     0.375640000000     0.781970000000    -0.421112   
O        O      0.993070000000     0.545140000000     0.861140000000    -0.421112   
O        O      0.259830000000     0.349710000000     0.888250000000    -0.421112   
O        O      0.211060000000     0.484330000000     0.995730000000    -0.421112   
O        O      0.915160000000     0.150370000000     0.805610000000    -0.421112   
O        O      0.892560000000     0.978990000000     0.878090000000    -0.421112   
O        O      0.973570000000     0.313170000000     0.976830000000    -0.421112   
O        O      0.885010000000     0.149050000000     0.037150000000    -0.421112   
O        O      0.159030000000     0.103150000000     0.938850000000    -0.421112   
O        O      0.381820000000     0.105380000000     0.905080000000    -0.421112   
O        O      0.700870000000     0.311430000000     0.746850000000    -0.421112   
O        O      0.563230000000     0.313710000000     0.867910000000    -0.421112   
O        O      0.497650000000     0.124360000000     0.718030000000    -0.421112   
O        O      0.493070000000     0.954860000000     0.638860000000    -0.421112   
O        O      0.759830000000     0.150290000000     0.611750000000    -0.421112   
O        O      0.711060000000     0.015670000000     0.504270000000    -0.421112   
O        O      0.415160000000     0.349630000000     0.694390000000    -0.421112   
O        O      0.392560000000     0.521010000000     0.621910000000    -0.421112   
O        O      0.473570000000     0.186830000000     0.523170000000    -0.421112   
O        O      0.385010000000     0.350950000000     0.462850000000    -0.421112   
O        O      0.659030000000     0.396850000000     0.561150000000    -0.421112   
O        O      0.881820000000     0.394620000000     0.594920000000    -0.421112   


