data_NIKYOW_original

_audit_creation_method RASPA-1.0
_audit_creation_date 2022-1-31
_audit_author_name 'Felipe Lopes de Oliveira <felipe.lopes.oliveira@ibm.com>'

_cell_length_a    9.8474
_cell_length_b    11.3369
_cell_length_c    14.4507
_cell_angle_alpha 91.1417
_cell_angle_beta  90
_cell_angle_gamma 90
_cell_volume      1612.94

_symmetry_cell_setting          triclinic
_symmetry_space_group_name_Hall 'P 1'
_symmetry_space_group_name_H-M  'P 1'
_symmetry_Int_Tables_number     1

_symmetry_equiv_pos_as_xyz 'x,y,z'

loop_
_atom_site_label
_atom_site_type_symbol
_atom_site_fract_x
_atom_site_fract_y
_atom_site_fract_z
_atom_site_charge
Fe       Fe     0.917820000000     0.755290000000     0.132350000000     0.920086   
Fe       Fe     0.896070000000     0.260950000000     0.685360000000     0.920086   
Fe       Fe     0.417820000000     0.744710000000     0.367650000000     0.920086   
Fe       Fe     0.396070000000     0.239050000000     0.814640000000     0.920086   
Fe       Fe     0.082180000000     0.244710000000     0.867650000000     0.920086   
Fe       Fe     0.103930000000     0.739050000000     0.314640000000     0.920086   
Fe       Fe     0.582180000000     0.255290000000     0.632350000000     0.920086   
Fe       Fe     0.603930000000     0.760950000000     0.185360000000     0.920086   
Fe       Fe     0.000000000000     0.500000000000     0.000000000000     0.920086   
Fe       Fe     0.500000000000     0.000000000000     0.500000000000     0.920086   
Fe       Fe     0.000000000000     0.000000000000     0.000000000000     0.920086   
Fe       Fe     0.500000000000     0.500000000000     0.500000000000     0.920086   
H        H      0.747200000000     0.860700000000     0.368400000000    -0.0978173  
H        H      0.022200000000     0.472900000000     0.269900000000    -0.0978173  
H        H      0.615000000000     0.557200000000     0.034100000000    -0.0978173  
H        H      0.172500000000     0.990500000000     0.242200000000    -0.0978173  
H        H      0.169700000000     0.698000000000     0.931500000000    -0.0978173  
H        H      0.698700000000     0.983400000000     0.996700000000    -0.0978173  
H        H      0.247200000000     0.639300000000     0.131600000000    -0.0978173  
H        H      0.522200000000     0.027100000000     0.230100000000    -0.0978173  
H        H      0.115000000000     0.942800000000     0.465900000000    -0.0978173  
H        H      0.672500000000     0.509500000000     0.257800000000    -0.0978173  
H        H      0.669700000000     0.802000000000     0.568500000000    -0.0978173  
H        H      0.198700000000     0.516600000000     0.503300000000    -0.0978173  
H        H      0.252800000000     0.139300000000     0.631600000000    -0.0978173  
H        H      0.977800000000     0.527100000000     0.730100000000    -0.0978173  
H        H      0.385000000000     0.442800000000     0.965900000000    -0.0978173  
H        H      0.827500000000     0.009500000000     0.757800000000    -0.0978173  
H        H      0.830300000000     0.302000000000     0.068500000000    -0.0978173  
H        H      0.301300000000     0.016600000000     0.003300000000    -0.0978173  
H        H      0.752800000000     0.360700000000     0.868400000000    -0.0978173  
H        H      0.477800000000     0.972900000000     0.769900000000    -0.0978173  
H        H      0.885000000000     0.057200000000     0.534100000000    -0.0978173  
H        H      0.327500000000     0.490500000000     0.742200000000    -0.0978173  
H        H      0.330300000000     0.198000000000     0.431500000000    -0.0978173  
H        H      0.801300000000     0.483400000000     0.496700000000    -0.0978173  
C        C      0.819700000000     0.829600000000     0.332000000000     0.486706   
C        C      0.005400000000     0.514200000000     0.214500000000     0.486706   
C        C      0.708500000000     0.574800000000     0.042900000000     0.486706   
C        C      0.119000000000     0.959500000000     0.192800000000     0.486706   
C        C      0.111500000000     0.743800000000     0.970500000000     0.486706   
C        C      0.714800000000     0.926900000000     0.043100000000     0.486706   
C        C      0.319700000000     0.670400000000     0.168000000000     0.486706   
C        C      0.505400000000     0.985800000000     0.285500000000     0.486706   
C        C      0.208500000000     0.925200000000     0.457100000000     0.486706   
C        C      0.619000000000     0.540500000000     0.307200000000     0.486706   
C        C      0.611500000000     0.756200000000     0.529500000000     0.486706   
C        C      0.214800000000     0.573100000000     0.456900000000     0.486706   
C        C      0.180300000000     0.170400000000     0.668000000000     0.486706   
C        C      0.994600000000     0.485800000000     0.785500000000     0.486706   
C        C      0.291500000000     0.425200000000     0.957100000000     0.486706   
C        C      0.881000000000     0.040500000000     0.807200000000     0.486706   
C        C      0.888500000000     0.256200000000     0.029500000000     0.486706   
C        C      0.285200000000     0.073100000000     0.956900000000     0.486706   
C        C      0.680300000000     0.329600000000     0.832000000000     0.486706   
C        C      0.494600000000     0.014200000000     0.714500000000     0.486706   
C        C      0.791500000000     0.074800000000     0.542900000000     0.486706   
C        C      0.381000000000     0.459500000000     0.692800000000     0.486706   
C        C      0.388500000000     0.243800000000     0.470500000000     0.486706   
C        C      0.785200000000     0.426900000000     0.543100000000     0.486706   
O        O      0.795250000000     0.809390000000     0.246290000000    -0.424466   
O        O      0.928690000000     0.812660000000     0.372060000000    -0.424466   
O        O      0.999550000000     0.625920000000     0.220920000000    -0.424466   
O        O      0.991100000000     0.454170000000     0.142670000000    -0.424466   
O        O      0.738090000000     0.651650000000     0.105050000000    -0.424466   
O        O      0.790500000000     0.520830000000     0.992730000000    -0.424466   
O        O      0.079550000000     0.852250000000     0.198850000000    -0.424466   
O        O      0.093910000000     0.025890000000     0.128990000000    -0.424466   
O        O      0.030070000000     0.687100000000     0.023100000000    -0.424466   
O        O      0.121150000000     0.851160000000     0.965860000000    -0.424466   
O        O      0.838300000000     0.895880000000     0.056880000000    -0.424466   
O        O      0.614330000000     0.889080000000     0.085380000000    -0.424466   
O        O      0.295250000000     0.690610000000     0.253710000000    -0.424466   
O        O      0.428690000000     0.687340000000     0.127940000000    -0.424466   
O        O      0.499550000000     0.874080000000     0.279080000000    -0.424466   
O        O      0.491100000000     0.045830000000     0.357330000000    -0.424466   
O        O      0.238090000000     0.848350000000     0.394950000000    -0.424466   
O        O      0.290500000000     0.979170000000     0.507270000000    -0.424466   
O        O      0.579550000000     0.647750000000     0.301150000000    -0.424466   
O        O      0.593910000000     0.474110000000     0.371010000000    -0.424466   
O        O      0.530070000000     0.812900000000     0.476900000000    -0.424466   
O        O      0.621150000000     0.648840000000     0.534140000000    -0.424466   
O        O      0.338300000000     0.604120000000     0.443120000000    -0.424466   
O        O      0.114330000000     0.610920000000     0.414620000000    -0.424466   
O        O      0.204750000000     0.190610000000     0.753710000000    -0.424466   
O        O      0.071310000000     0.187340000000     0.627940000000    -0.424466   
O        O      0.000450000000     0.374080000000     0.779080000000    -0.424466   
O        O      0.008900000000     0.545830000000     0.857330000000    -0.424466   
O        O      0.261910000000     0.348350000000     0.894950000000    -0.424466   
O        O      0.209500000000     0.479170000000     0.007270000000    -0.424466   
O        O      0.920450000000     0.147750000000     0.801150000000    -0.424466   
O        O      0.906090000000     0.974110000000     0.871010000000    -0.424466   
O        O      0.969930000000     0.312900000000     0.976900000000    -0.424466   
O        O      0.878850000000     0.148840000000     0.034140000000    -0.424466   
O        O      0.161700000000     0.104120000000     0.943120000000    -0.424466   
O        O      0.385670000000     0.110920000000     0.914620000000    -0.424466   
O        O      0.704750000000     0.309390000000     0.746290000000    -0.424466   
O        O      0.571310000000     0.312660000000     0.872060000000    -0.424466   
O        O      0.500450000000     0.125920000000     0.720920000000    -0.424466   
O        O      0.508900000000     0.954170000000     0.642670000000    -0.424466   
O        O      0.761910000000     0.151650000000     0.605050000000    -0.424466   
O        O      0.709500000000     0.020830000000     0.492730000000    -0.424466   
O        O      0.420450000000     0.352250000000     0.698850000000    -0.424466   
O        O      0.406090000000     0.525890000000     0.628990000000    -0.424466   
O        O      0.469930000000     0.187100000000     0.523100000000    -0.424466   
O        O      0.378850000000     0.351160000000     0.465860000000    -0.424466   
O        O      0.661700000000     0.395880000000     0.556880000000    -0.424466   
O        O      0.885670000000     0.389080000000     0.585380000000    -0.424466   


