data_NIKYUC01_original

_audit_creation_method RASPA-1.0
_audit_creation_date 2022-1-30
_audit_author_name 'Felipe Lopes de Oliveira <felipe.lopes.oliveira@ibm.com>'

_cell_length_a    9.9803
_cell_length_b    11.4525
_cell_length_c    14.8619
_cell_angle_alpha 91.278
_cell_angle_beta  90
_cell_angle_gamma 90
_cell_volume      1698.28

_symmetry_cell_setting          triclinic
_symmetry_space_group_name_Hall 'P 1'
_symmetry_space_group_name_H-M  'P 1'
_symmetry_Int_Tables_number     1

_symmetry_equiv_pos_as_xyz 'x,y,z'

loop_
_atom_site_label
_atom_site_type_symbol
_atom_site_fract_x
_atom_site_fract_y
_atom_site_fract_z
_atom_site_charge
Fe       Fe     0.923770000000     0.755910000000     0.133680000000     0.919745   
Fe       Fe     0.884530000000     0.260490000000     0.691980000000     0.919745   
Fe       Fe     0.423770000000     0.744090000000     0.366320000000     0.919745   
Fe       Fe     0.384530000000     0.239510000000     0.808020000000     0.919745   
Fe       Fe     0.076230000000     0.244090000000     0.866320000000     0.919745   
Fe       Fe     0.115470000000     0.739510000000     0.308020000000     0.919745   
Fe       Fe     0.576230000000     0.255910000000     0.633680000000     0.919745   
Fe       Fe     0.615470000000     0.760490000000     0.191980000000     0.919745   
Fe       Fe     0.000000000000     0.500000000000     0.000000000000     0.919745   
Fe       Fe     0.500000000000     0.000000000000     0.500000000000     0.919745   
Fe       Fe     0.000000000000     0.000000000000     0.000000000000     0.919745   
Fe       Fe     0.500000000000     0.500000000000     0.500000000000     0.919745   
H        H      0.758000000000     0.842800000000     0.370800000000    -0.0937381  
H        H      0.056000000000     0.471300000000     0.261300000000    -0.0937381  
H        H      0.620000000000     0.553600000000     0.051600000000    -0.0937381  
H        H      0.206000000000     0.978000000000     0.223000000000    -0.0937381  
H        H      0.146000000000     0.696100000000     0.927100000000    -0.0937381  
H        H      0.708000000000     0.001700000000     0.021700000000    -0.0937381  
H        H      0.258000000000     0.657200000000     0.129200000000    -0.0937381  
H        H      0.556000000000     0.028700000000     0.238700000000    -0.0937381  
H        H      0.120000000000     0.946400000000     0.448400000000    -0.0937381  
H        H      0.706000000000     0.522000000000     0.277000000000    -0.0937381  
H        H      0.646000000000     0.803900000000     0.572900000000    -0.0937381  
H        H      0.208000000000     0.498300000000     0.478300000000    -0.0937381  
H        H      0.242000000000     0.157200000000     0.629200000000    -0.0937381  
H        H      0.944000000000     0.528700000000     0.738700000000    -0.0937381  
H        H      0.380000000000     0.446400000000     0.948400000000    -0.0937381  
H        H      0.794000000000     0.022000000000     0.777000000000    -0.0937381  
H        H      0.854000000000     0.303900000000     0.072900000000    -0.0937381  
H        H      0.292000000000     0.998300000000     0.978300000000    -0.0937381  
H        H      0.742000000000     0.342800000000     0.870800000000    -0.0937381  
H        H      0.444000000000     0.971300000000     0.761300000000    -0.0937381  
H        H      0.880000000000     0.053600000000     0.551600000000    -0.0937381  
H        H      0.294000000000     0.478000000000     0.723000000000    -0.0937381  
H        H      0.354000000000     0.196100000000     0.427100000000    -0.0937381  
H        H      0.792000000000     0.501700000000     0.521700000000    -0.0937381  
C        C      0.833000000000     0.819260000000     0.332860000000     0.482052   
C        C      0.030500000000     0.517810000000     0.206510000000     0.482052   
C        C      0.713300000000     0.570930000000     0.056430000000     0.482052   
C        C      0.138200000000     0.951100000000     0.181900000000     0.482052   
C        C      0.095600000000     0.742380000000     0.965380000000     0.482052   
C        C      0.725700000000     0.936990000000     0.061590000000     0.482052   
C        C      0.333000000000     0.680740000000     0.167140000000     0.482052   
C        C      0.530500000000     0.982190000000     0.293490000000     0.482052   
C        C      0.213300000000     0.929070000000     0.443570000000     0.482052   
C        C      0.638200000000     0.548900000000     0.318100000000     0.482052   
C        C      0.595600000000     0.757620000000     0.534620000000     0.482052   
C        C      0.225700000000     0.563010000000     0.438410000000     0.482052   
C        C      0.167000000000     0.180740000000     0.667140000000     0.482052   
C        C      0.969500000000     0.482190000000     0.793490000000     0.482052   
C        C      0.286700000000     0.429070000000     0.943570000000     0.482052   
C        C      0.861800000000     0.048900000000     0.818100000000     0.482052   
C        C      0.904400000000     0.257620000000     0.034620000000     0.482052   
C        C      0.274300000000     0.063010000000     0.938410000000     0.482052   
C        C      0.667000000000     0.319260000000     0.832860000000     0.482052   
C        C      0.469500000000     0.017810000000     0.706510000000     0.482052   
C        C      0.786700000000     0.070930000000     0.556430000000     0.482052   
C        C      0.361800000000     0.451100000000     0.681900000000     0.482052   
C        C      0.404400000000     0.242380000000     0.465380000000     0.482052   
C        C      0.774300000000     0.436990000000     0.561590000000     0.482052   
O        O      0.806130000000     0.803490000000     0.249670000000    -0.424093   
O        O      0.943140000000     0.803620000000     0.368890000000    -0.424093   
O        O      0.013580000000     0.627160000000     0.214780000000    -0.424093   
O        O      0.014560000000     0.457970000000     0.137370000000    -0.424093   
O        O      0.745440000000     0.654160000000     0.109940000000    -0.424093   
O        O      0.791060000000     0.512930000000     0.008250000000    -0.424093   
O        O      0.085700000000     0.851610000000     0.195640000000    -0.424093   
O        O      0.115130000000     0.014530000000     0.118060000000    -0.424093   
O        O      0.024760000000     0.686900000000     0.022320000000    -0.424093   
O        O      0.103130000000     0.848460000000     0.958470000000    -0.424093   
O        O      0.846620000000     0.900870000000     0.066150000000    -0.424093   
O        O      0.629020000000     0.897590000000     0.102830000000    -0.424093   
O        O      0.306130000000     0.696510000000     0.250330000000    -0.424093   
O        O      0.443140000000     0.696380000000     0.131110000000    -0.424093   
O        O      0.513580000000     0.872840000000     0.285220000000    -0.424093   
O        O      0.514560000000     0.042030000000     0.362630000000    -0.424093   
O        O      0.245440000000     0.845840000000     0.390060000000    -0.424093   
O        O      0.291060000000     0.987070000000     0.491750000000    -0.424093   
O        O      0.585700000000     0.648390000000     0.304360000000    -0.424093   
O        O      0.615130000000     0.485470000000     0.381940000000    -0.424093   
O        O      0.524760000000     0.813100000000     0.477680000000    -0.424093   
O        O      0.603130000000     0.651540000000     0.541530000000    -0.424093   
O        O      0.346620000000     0.599130000000     0.433850000000    -0.424093   
O        O      0.129020000000     0.602410000000     0.397170000000    -0.424093   
O        O      0.193870000000     0.196510000000     0.750330000000    -0.424093   
O        O      0.056860000000     0.196380000000     0.631110000000    -0.424093   
O        O      0.986420000000     0.372840000000     0.785220000000    -0.424093   
O        O      0.985440000000     0.542030000000     0.862630000000    -0.424093   
O        O      0.254560000000     0.345840000000     0.890060000000    -0.424093   
O        O      0.208940000000     0.487070000000     0.991750000000    -0.424093   
O        O      0.914300000000     0.148390000000     0.804360000000    -0.424093   
O        O      0.884870000000     0.985470000000     0.881940000000    -0.424093   
O        O      0.975240000000     0.313100000000     0.977680000000    -0.424093   
O        O      0.896870000000     0.151540000000     0.041530000000    -0.424093   
O        O      0.153380000000     0.099130000000     0.933850000000    -0.424093   
O        O      0.370980000000     0.102410000000     0.897170000000    -0.424093   
O        O      0.693870000000     0.303490000000     0.749670000000    -0.424093   
O        O      0.556860000000     0.303620000000     0.868890000000    -0.424093   
O        O      0.486420000000     0.127160000000     0.714780000000    -0.424093   
O        O      0.485440000000     0.957970000000     0.637370000000    -0.424093   
O        O      0.754560000000     0.154160000000     0.609940000000    -0.424093   
O        O      0.708940000000     0.012930000000     0.508250000000    -0.424093   
O        O      0.414300000000     0.351610000000     0.695640000000    -0.424093   
O        O      0.384870000000     0.514530000000     0.618060000000    -0.424093   
O        O      0.475240000000     0.186900000000     0.522320000000    -0.424093   
O        O      0.396870000000     0.348460000000     0.458470000000    -0.424093   
O        O      0.653380000000     0.400870000000     0.566150000000    -0.424093   
O        O      0.870980000000     0.397590000000     0.602830000000    -0.424093   


