data_NIKZEN_original

_audit_creation_method RASPA-1.0
_audit_creation_date 2022-1-31
_audit_author_name 'Felipe Lopes de Oliveira <felipe.lopes.oliveira@ibm.com>'

_cell_length_a    9.8855
_cell_length_b    11.4082
_cell_length_c    14.8051
_cell_angle_alpha 91.4107
_cell_angle_beta  90
_cell_angle_gamma 90
_cell_volume      1669.15

_symmetry_cell_setting          triclinic
_symmetry_space_group_name_Hall 'P 1'
_symmetry_space_group_name_H-M  'P 1'
_symmetry_Int_Tables_number     1

_symmetry_equiv_pos_as_xyz 'x,y,z'

loop_
_atom_site_label
_atom_site_type_symbol
_atom_site_fract_x
_atom_site_fract_y
_atom_site_fract_z
_atom_site_charge
Fe       Fe     0.923920000000     0.756540000000     0.132910000000     0.925654   
Fe       Fe     0.886010000000     0.260190000000     0.691760000000     0.925654   
Fe       Fe     0.423920000000     0.743460000000     0.367090000000     0.925654   
Fe       Fe     0.386010000000     0.239810000000     0.808240000000     0.925654   
Fe       Fe     0.076080000000     0.243460000000     0.867090000000     0.925654   
Fe       Fe     0.113990000000     0.739810000000     0.308240000000     0.925654   
Fe       Fe     0.576080000000     0.256540000000     0.632910000000     0.925654   
Fe       Fe     0.613990000000     0.760190000000     0.191760000000     0.925654   
Fe       Fe     0.000000000000     0.500000000000     0.000000000000     0.925654   
Fe       Fe     0.500000000000     0.000000000000     0.500000000000     0.925654   
Fe       Fe     0.000000000000     0.000000000000     0.000000000000     0.925654   
Fe       Fe     0.500000000000     0.500000000000     0.500000000000     0.925654   
H        H      0.762100000000     0.854800000000     0.368300000000    -0.110147   
H        H      0.042900000000     0.476500000000     0.260200000000    -0.110147   
H        H      0.620200000000     0.558100000000     0.044300000000    -0.110147   
H        H      0.205300000000     0.977000000000     0.223400000000    -0.110147   
H        H      0.160300000000     0.696800000000     0.929600000000    -0.110147   
H        H      0.705400000000     0.994800000000     0.018700000000    -0.110147   
H        H      0.262100000000     0.645200000000     0.131700000000    -0.110147   
H        H      0.542900000000     0.023500000000     0.239800000000    -0.110147   
H        H      0.120200000000     0.941900000000     0.455700000000    -0.110147   
H        H      0.705300000000     0.523000000000     0.276600000000    -0.110147   
H        H      0.660300000000     0.803200000000     0.570400000000    -0.110147   
H        H      0.205400000000     0.505200000000     0.481300000000    -0.110147   
H        H      0.237900000000     0.145200000000     0.631700000000    -0.110147   
H        H      0.957100000000     0.523500000000     0.739800000000    -0.110147   
H        H      0.379800000000     0.441900000000     0.955700000000    -0.110147   
H        H      0.794700000000     0.023000000000     0.776600000000    -0.110147   
H        H      0.839700000000     0.303200000000     0.070400000000    -0.110147   
H        H      0.294600000000     0.005200000000     0.981300000000    -0.110147   
H        H      0.737900000000     0.354800000000     0.868300000000    -0.110147   
H        H      0.457100000000     0.976500000000     0.760200000000    -0.110147   
H        H      0.879800000000     0.058100000000     0.544300000000    -0.110147   
H        H      0.294700000000     0.477000000000     0.723400000000    -0.110147   
H        H      0.339700000000     0.196800000000     0.429600000000    -0.110147   
H        H      0.794600000000     0.494800000000     0.518700000000    -0.110147   
C        C      0.831800000000     0.825540000000     0.332040000000     0.507459   
C        C      0.020500000000     0.516100000000     0.208100000000     0.507459   
C        C      0.711800000000     0.575300000000     0.050100000000     0.507459   
C        C      0.141300000000     0.951000000000     0.181500000000     0.507459   
C        C      0.104200000000     0.741800000000     0.967100000000     0.507459   
C        C      0.722400000000     0.934690000000     0.058490000000     0.507459   
C        C      0.331800000000     0.674460000000     0.167960000000     0.507459   
C        C      0.520500000000     0.983900000000     0.291900000000     0.507459   
C        C      0.211800000000     0.924700000000     0.449900000000     0.507459   
C        C      0.641300000000     0.549000000000     0.318500000000     0.507459   
C        C      0.604200000000     0.758200000000     0.532900000000     0.507459   
C        C      0.222400000000     0.565310000000     0.441510000000     0.507459   
C        C      0.168200000000     0.174460000000     0.667960000000     0.507459   
C        C      0.979500000000     0.483900000000     0.791900000000     0.507459   
C        C      0.288200000000     0.424700000000     0.949900000000     0.507459   
C        C      0.858700000000     0.049000000000     0.818500000000     0.507459   
C        C      0.895800000000     0.258200000000     0.032900000000     0.507459   
C        C      0.277600000000     0.065310000000     0.941510000000     0.507459   
C        C      0.668200000000     0.325540000000     0.832040000000     0.507459   
C        C      0.479500000000     0.016100000000     0.708100000000     0.507459   
C        C      0.788200000000     0.075300000000     0.550100000000     0.507459   
C        C      0.358700000000     0.451000000000     0.681500000000     0.507459   
C        C      0.395800000000     0.241800000000     0.467100000000     0.507459   
C        C      0.777600000000     0.434690000000     0.558490000000     0.507459   
O        O      0.804840000000     0.807440000000     0.248720000000    -0.430069   
O        O      0.941780000000     0.807990000000     0.369390000000    -0.430069   
O        O      0.010120000000     0.627460000000     0.215460000000    -0.430069   
O        O      0.003960000000     0.456120000000     0.139120000000    -0.430069   
O        O      0.744170000000     0.654290000000     0.108500000000    -0.430069   
O        O      0.790310000000     0.519250000000     0.000250000000    -0.430069   
O        O      0.087520000000     0.851400000000     0.195050000000    -0.430069   
O        O      0.117080000000     0.016140000000     0.118440000000    -0.430069   
O        O      0.029090000000     0.686590000000     0.022790000000    -0.430069   
O        O      0.108520000000     0.849150000000     0.959050000000    -0.430069   
O        O      0.844830000000     0.900420000000     0.064700000000    -0.430069   
O        O      0.624030000000     0.896300000000     0.099900000000    -0.430069   
O        O      0.304840000000     0.692560000000     0.251280000000    -0.430069   
O        O      0.441780000000     0.692010000000     0.130610000000    -0.430069   
O        O      0.510120000000     0.872540000000     0.284540000000    -0.430069   
O        O      0.503960000000     0.043880000000     0.360880000000    -0.430069   
O        O      0.244170000000     0.845710000000     0.391500000000    -0.430069   
O        O      0.290310000000     0.980750000000     0.499750000000    -0.430069   
O        O      0.587520000000     0.648600000000     0.304950000000    -0.430069   
O        O      0.617080000000     0.483860000000     0.381560000000    -0.430069   
O        O      0.529090000000     0.813410000000     0.477210000000    -0.430069   
O        O      0.608520000000     0.650850000000     0.540950000000    -0.430069   
O        O      0.344830000000     0.599580000000     0.435300000000    -0.430069   
O        O      0.124030000000     0.603700000000     0.400100000000    -0.430069   
O        O      0.195160000000     0.192560000000     0.751280000000    -0.430069   
O        O      0.058220000000     0.192010000000     0.630610000000    -0.430069   
O        O      0.989880000000     0.372540000000     0.784540000000    -0.430069   
O        O      0.996040000000     0.543880000000     0.860880000000    -0.430069   
O        O      0.255830000000     0.345710000000     0.891500000000    -0.430069   
O        O      0.209690000000     0.480750000000     0.999750000000    -0.430069   
O        O      0.912480000000     0.148600000000     0.804950000000    -0.430069   
O        O      0.882920000000     0.983860000000     0.881560000000    -0.430069   
O        O      0.970910000000     0.313410000000     0.977210000000    -0.430069   
O        O      0.891480000000     0.150850000000     0.040950000000    -0.430069   
O        O      0.155170000000     0.099580000000     0.935300000000    -0.430069   
O        O      0.375970000000     0.103700000000     0.900100000000    -0.430069   
O        O      0.695160000000     0.307440000000     0.748720000000    -0.430069   
O        O      0.558220000000     0.307990000000     0.869390000000    -0.430069   
O        O      0.489880000000     0.127460000000     0.715460000000    -0.430069   
O        O      0.496040000000     0.956120000000     0.639120000000    -0.430069   
O        O      0.755830000000     0.154290000000     0.608500000000    -0.430069   
O        O      0.709690000000     0.019250000000     0.500250000000    -0.430069   
O        O      0.412480000000     0.351400000000     0.695050000000    -0.430069   
O        O      0.382920000000     0.516140000000     0.618440000000    -0.430069   
O        O      0.470910000000     0.186590000000     0.522790000000    -0.430069   
O        O      0.391480000000     0.349150000000     0.459050000000    -0.430069   
O        O      0.655170000000     0.400420000000     0.564700000000    -0.430069   
O        O      0.875970000000     0.396300000000     0.599900000000    -0.430069   


