data_NIKZAJ_original

_audit_creation_method RASPA-1.0
_audit_creation_date 2022-1-28
_audit_author_name 'Felipe Lopes de Oliveira <felipe.lopes.oliveira@ibm.com>'

_cell_length_a    9.7577
_cell_length_b    11.319
_cell_length_c    14.5156
_cell_angle_alpha 91.0617
_cell_angle_beta  90
_cell_angle_gamma 90
_cell_volume      1602.94

_symmetry_cell_setting          triclinic
_symmetry_space_group_name_Hall 'P 1'
_symmetry_space_group_name_H-M  'P 1'
_symmetry_Int_Tables_number     1

_symmetry_equiv_pos_as_xyz 'x,y,z'

loop_
_atom_site_label
_atom_site_type_symbol
_atom_site_fract_x
_atom_site_fract_y
_atom_site_fract_z
_atom_site_charge
Fe       Fe     0.915710000000     0.755870000000     0.131430000000     0.919952   
Fe       Fe     0.900210000000     0.261340000000     0.685010000000     0.919952   
Fe       Fe     0.415710000000     0.744130000000     0.368570000000     0.919952   
Fe       Fe     0.400210000000     0.238660000000     0.814990000000     0.919952   
Fe       Fe     0.084290000000     0.244130000000     0.868570000000     0.919952   
Fe       Fe     0.099790000000     0.738660000000     0.314990000000     0.919952   
Fe       Fe     0.584290000000     0.255870000000     0.631430000000     0.919952   
Fe       Fe     0.599790000000     0.761340000000     0.185010000000     0.919952   
Fe       Fe     0.000000000000     0.500000000000     0.000000000000     0.919952   
Fe       Fe     0.500000000000     0.000000000000     0.500000000000     0.919952   
Fe       Fe     0.000000000000     0.000000000000     0.000000000000     0.919952   
Fe       Fe     0.500000000000     0.500000000000     0.500000000000     0.919952   
H        H      0.743400000000     0.867100000000     0.365100000000    -0.0976203  
H        H      0.016200000000     0.471500000000     0.269800000000    -0.0976203  
H        H      0.611200000000     0.559500000000     0.032900000000    -0.0976203  
H        H      0.183800000000     0.983800000000     0.238400000000    -0.0976203  
H        H      0.178600000000     0.697600000000     0.936900000000    -0.0976203  
H        H      0.695700000000     0.991800000000     0.002900000000    -0.0976203  
H        H      0.243400000000     0.632900000000     0.134900000000    -0.0976203  
H        H      0.516200000000     0.028500000000     0.230200000000    -0.0976203  
H        H      0.111200000000     0.940500000000     0.467100000000    -0.0976203  
H        H      0.683800000000     0.516200000000     0.261600000000    -0.0976203  
H        H      0.678600000000     0.802400000000     0.563100000000    -0.0976203  
H        H      0.195700000000     0.508200000000     0.497100000000    -0.0976203  
H        H      0.256600000000     0.132900000000     0.634900000000    -0.0976203  
H        H      0.983800000000     0.528500000000     0.730200000000    -0.0976203  
H        H      0.388800000000     0.440500000000     0.967100000000    -0.0976203  
H        H      0.816200000000     0.016200000000     0.761600000000    -0.0976203  
H        H      0.821400000000     0.302400000000     0.063100000000    -0.0976203  
H        H      0.304300000000     0.008200000000     0.997100000000    -0.0976203  
H        H      0.756600000000     0.367100000000     0.865100000000    -0.0976203  
H        H      0.483800000000     0.971500000000     0.769800000000    -0.0976203  
H        H      0.888800000000     0.059500000000     0.532900000000    -0.0976203  
H        H      0.316200000000     0.483800000000     0.738400000000    -0.0976203  
H        H      0.321400000000     0.197600000000     0.436900000000    -0.0976203  
H        H      0.804300000000     0.491800000000     0.502900000000    -0.0976203  
C        C      0.816200000000     0.834470000000     0.329370000000     0.486412   
C        C      0.000900000000     0.513230000000     0.214530000000     0.486412   
C        C      0.705500000000     0.577090000000     0.041890000000     0.486412   
C        C      0.126400000000     0.955270000000     0.190070000000     0.486412   
C        C      0.114200000000     0.742980000000     0.971680000000     0.486412   
C        C      0.711600000000     0.931310000000     0.046110000000     0.486412   
C        C      0.316200000000     0.665530000000     0.170630000000     0.486412   
C        C      0.500900000000     0.986770000000     0.285470000000     0.486412   
C        C      0.205500000000     0.922910000000     0.458110000000     0.486412   
C        C      0.626400000000     0.544730000000     0.309930000000     0.486412   
C        C      0.614200000000     0.757020000000     0.528320000000     0.486412   
C        C      0.211600000000     0.568690000000     0.453890000000     0.486412   
C        C      0.183800000000     0.165530000000     0.670630000000     0.486412   
C        C      0.999100000000     0.486770000000     0.785470000000     0.486412   
C        C      0.294500000000     0.422910000000     0.958110000000     0.486412   
C        C      0.873600000000     0.044730000000     0.809930000000     0.486412   
C        C      0.885800000000     0.257020000000     0.028320000000     0.486412   
C        C      0.288400000000     0.068690000000     0.953890000000     0.486412   
C        C      0.683800000000     0.334470000000     0.829370000000     0.486412   
C        C      0.499100000000     0.013230000000     0.714530000000     0.486412   
C        C      0.794500000000     0.077090000000     0.541890000000     0.486412   
C        C      0.373600000000     0.455270000000     0.690070000000     0.486412   
C        C      0.385800000000     0.242980000000     0.471680000000     0.486412   
C        C      0.788400000000     0.431310000000     0.546110000000     0.486412   
O        O      0.791490000000     0.812300000000     0.244500000000    -0.424384   
O        O      0.926000000000     0.817450000000     0.369490000000    -0.424384   
O        O      0.993700000000     0.625320000000     0.221090000000    -0.424384   
O        O      0.989830000000     0.453920000000     0.142550000000    -0.424384   
O        O      0.734710000000     0.652240000000     0.104380000000    -0.424384   
O        O      0.788710000000     0.524160000000     0.991160000000    -0.424384   
O        O      0.079960000000     0.850410000000     0.197590000000    -0.424384   
O        O      0.104180000000     0.023060000000     0.126290000000    -0.424384   
O        O      0.031770000000     0.686330000000     0.023870000000    -0.424384   
O        O      0.117170000000     0.851120000000     0.962780000000    -0.424384   
O        O      0.835930000000     0.897970000000     0.056990000000    -0.424384   
O        O      0.609850000000     0.891780000000     0.086790000000    -0.424384   
O        O      0.291490000000     0.687700000000     0.255500000000    -0.424384   
O        O      0.426000000000     0.682550000000     0.130510000000    -0.424384   
O        O      0.493700000000     0.874680000000     0.278910000000    -0.424384   
O        O      0.489830000000     0.046080000000     0.357450000000    -0.424384   
O        O      0.234710000000     0.847760000000     0.395620000000    -0.424384   
O        O      0.288710000000     0.975840000000     0.508840000000    -0.424384   
O        O      0.579960000000     0.649590000000     0.302410000000    -0.424384   
O        O      0.604180000000     0.476940000000     0.373710000000    -0.424384   
O        O      0.531770000000     0.813670000000     0.476130000000    -0.424384   
O        O      0.617170000000     0.648880000000     0.537220000000    -0.424384   
O        O      0.335930000000     0.602030000000     0.443010000000    -0.424384   
O        O      0.109850000000     0.608220000000     0.413210000000    -0.424384   
O        O      0.208510000000     0.187700000000     0.755500000000    -0.424384   
O        O      0.074000000000     0.182550000000     0.630510000000    -0.424384   
O        O      0.006300000000     0.374680000000     0.778910000000    -0.424384   
O        O      0.010170000000     0.546080000000     0.857450000000    -0.424384   
O        O      0.265290000000     0.347760000000     0.895620000000    -0.424384   
O        O      0.211290000000     0.475840000000     0.008840000000    -0.424384   
O        O      0.920040000000     0.149590000000     0.802410000000    -0.424384   
O        O      0.895820000000     0.976940000000     0.873710000000    -0.424384   
O        O      0.968230000000     0.313670000000     0.976130000000    -0.424384   
O        O      0.882830000000     0.148880000000     0.037220000000    -0.424384   
O        O      0.164070000000     0.102030000000     0.943010000000    -0.424384   
O        O      0.390150000000     0.108220000000     0.913210000000    -0.424384   
O        O      0.708510000000     0.312300000000     0.744500000000    -0.424384   
O        O      0.574000000000     0.317450000000     0.869490000000    -0.424384   
O        O      0.506300000000     0.125320000000     0.721090000000    -0.424384   
O        O      0.510170000000     0.953920000000     0.642550000000    -0.424384   
O        O      0.765290000000     0.152240000000     0.604380000000    -0.424384   
O        O      0.711290000000     0.024160000000     0.491160000000    -0.424384   
O        O      0.420040000000     0.350410000000     0.697590000000    -0.424384   
O        O      0.395820000000     0.523060000000     0.626290000000    -0.424384   
O        O      0.468230000000     0.186330000000     0.523870000000    -0.424384   
O        O      0.382830000000     0.351120000000     0.462780000000    -0.424384   
O        O      0.664070000000     0.397970000000     0.556990000000    -0.424384   
O        O      0.890150000000     0.391780000000     0.586790000000    -0.424384   


