data_NIRDOI_original

_audit_creation_method RASPA-1.0
_audit_creation_date 2022-1-28
_audit_author_name 'Felipe Lopes de Oliveira <felipe.lopes.oliveira@ibm.com>'

_cell_length_a    15.648
_cell_length_b    16.342
_cell_length_c    16.984
_cell_angle_alpha 90
_cell_angle_beta  103.23
_cell_angle_gamma 90
_cell_volume      4227.87

_symmetry_cell_setting          triclinic
_symmetry_space_group_name_Hall 'P 1'
_symmetry_space_group_name_H-M  'P 1'
_symmetry_Int_Tables_number     1

_symmetry_equiv_pos_as_xyz 'x,y,z'

loop_
_atom_site_label
_atom_site_type_symbol
_atom_site_fract_x
_atom_site_fract_y
_atom_site_fract_z
_atom_site_charge
Zn       Zn     0.634230000000     0.041090000000     0.558770000000     0.48179    
Zn       Zn     0.946590000000     0.992200000000     0.174680000000     0.48179    
Zn       Zn     0.865770000000     0.541090000000     0.441230000000     0.48179    
Zn       Zn     0.553410000000     0.492200000000     0.825320000000     0.48179    
Zn       Zn     0.365770000000     0.958910000000     0.441230000000     0.48179    
Zn       Zn     0.053410000000     0.007800000000     0.825320000000     0.48179    
Zn       Zn     0.134230000000     0.458910000000     0.558770000000     0.48179    
Zn       Zn     0.446590000000     0.507800000000     0.174680000000     0.48179    
Zn       Zn     0.000000000000     0.000000000000     0.000000000000     0.48179    
Zn       Zn     0.500000000000     0.500000000000     0.000000000000     0.48179    
H        H      0.798500000000     0.963300000000     0.653100000000     0.0660181  
H        H      0.844500000000     0.841900000000     0.709200000000     0.0660181  
H        H      0.749700000000     0.735400000000     0.709200000000     0.0660181  
H        H      0.554700000000     0.893400000000     0.613500000000     0.0660181  
H        H      0.455500000000     0.715000000000     0.640600000000     0.0660181  
H        H      0.471400000000     0.802300000000     0.608100000000     0.0660181  
H        H      0.412300000000     0.904400000000     0.679800000000     0.0660181  
H        H      0.383700000000     0.959700000000     0.796800000000     0.0660181  
H        H      0.498200000000     0.765700000000     0.919000000000     0.0660181  
H        H      0.524400000000     0.714000000000     0.802000000000     0.0660181  
H        H      0.331900000000     0.991300000000     0.898600000000     0.0660181  
H        H      0.308200000000     0.042500000000     0.017700000000     0.0660181  
H        H      0.465100000000     0.876100000000     0.142300000000     0.0660181  
H        H      0.498400000000     0.828900000000     0.025100000000     0.0660181  
H        H      0.356100000000     0.056200000000     0.165400000000     0.0660181  
H        H      0.414300000000     0.986900000000     0.214700000000     0.0660181  
H        H      0.200600000000     0.035800000000     0.118600000000     0.0660181  
H        H      0.084900000000     0.861300000000     0.223500000000     0.0660181  
H        H      0.222700000000     0.810400000000     0.281300000000     0.0660181  
H        H      0.345500000000     0.867400000000     0.253600000000     0.0660181  
H        H      0.903900000000     0.167900000000     0.558300000000     0.0660181  
H        H      0.993200000000     0.281500000000     0.577000000000     0.0660181  
H        H      0.786100000000     0.426900000000     0.555800000000     0.0660181  
H        H      0.694700000000     0.313200000000     0.537000000000     0.0660181  
H        H      0.674900000000     0.306300000000     0.095600000000     0.0660181  
H        H      0.745500000000     0.302800000000     0.882300000000     0.0660181  
H        H      0.844000000000     0.199700000000     0.929200000000     0.0660181  
H        H      0.771400000000     0.199700000000     0.140100000000     0.0660181  
H        H      0.895700000000     0.925200000000     0.411500000000     0.0660181  
H        H      0.092800000000     0.083100000000     0.449400000000     0.0660181  
H        H      0.701500000000     0.463300000000     0.346900000000     0.0660181  
H        H      0.655500000000     0.341900000000     0.290800000000     0.0660181  
H        H      0.750300000000     0.235400000000     0.290800000000     0.0660181  
H        H      0.945300000000     0.393400000000     0.386500000000     0.0660181  
H        H      0.044500000000     0.215000000000     0.359400000000     0.0660181  
H        H      0.028600000000     0.302300000000     0.391900000000     0.0660181  
H        H      0.087700000000     0.404400000000     0.320200000000     0.0660181  
H        H      0.116300000000     0.459700000000     0.203200000000     0.0660181  
H        H      0.001800000000     0.265700000000     0.081000000000     0.0660181  
H        H      0.975600000000     0.214000000000     0.198000000000     0.0660181  
H        H      0.168100000000     0.491300000000     0.101400000000     0.0660181  
H        H      0.191800000000     0.542500000000     0.982300000000     0.0660181  
H        H      0.034900000000     0.376100000000     0.857700000000     0.0660181  
H        H      0.001600000000     0.328900000000     0.974900000000     0.0660181  
H        H      0.143900000000     0.556200000000     0.834600000000     0.0660181  
H        H      0.085700000000     0.486900000000     0.785300000000     0.0660181  
H        H      0.299400000000     0.535800000000     0.881400000000     0.0660181  
H        H      0.415100000000     0.361300000000     0.776500000000     0.0660181  
H        H      0.277300000000     0.310400000000     0.718700000000     0.0660181  
H        H      0.154500000000     0.367400000000     0.746400000000     0.0660181  
H        H      0.596100000000     0.667900000000     0.441700000000     0.0660181  
H        H      0.506800000000     0.781500000000     0.423000000000     0.0660181  
H        H      0.713900000000     0.926900000000     0.444200000000     0.0660181  
H        H      0.805300000000     0.813200000000     0.463000000000     0.0660181  
H        H      0.825100000000     0.806300000000     0.904400000000     0.0660181  
H        H      0.754500000000     0.802800000000     0.117700000000     0.0660181  
H        H      0.656000000000     0.699700000000     0.070800000000     0.0660181  
H        H      0.728600000000     0.699700000000     0.859900000000     0.0660181  
H        H      0.604300000000     0.425200000000     0.588500000000     0.0660181  
H        H      0.407200000000     0.583100000000     0.550600000000     0.0660181  
H        H      0.201500000000     0.036700000000     0.346900000000     0.0660181  
H        H      0.155500000000     0.158100000000     0.290800000000     0.0660181  
H        H      0.250300000000     0.264600000000     0.290800000000     0.0660181  
H        H      0.445300000000     0.106600000000     0.386500000000     0.0660181  
H        H      0.544500000000     0.285000000000     0.359400000000     0.0660181  
H        H      0.528600000000     0.197700000000     0.391900000000     0.0660181  
H        H      0.587700000000     0.095600000000     0.320200000000     0.0660181  
H        H      0.616300000000     0.040300000000     0.203200000000     0.0660181  
H        H      0.501800000000     0.234300000000     0.081000000000     0.0660181  
H        H      0.475600000000     0.286000000000     0.198000000000     0.0660181  
H        H      0.668100000000     0.008700000000     0.101400000000     0.0660181  
H        H      0.691800000000     0.957500000000     0.982300000000     0.0660181  
H        H      0.534900000000     0.123900000000     0.857700000000     0.0660181  
H        H      0.501600000000     0.171100000000     0.974900000000     0.0660181  
H        H      0.643900000000     0.943800000000     0.834600000000     0.0660181  
H        H      0.585700000000     0.013100000000     0.785300000000     0.0660181  
H        H      0.799400000000     0.964200000000     0.881400000000     0.0660181  
H        H      0.915100000000     0.138700000000     0.776500000000     0.0660181  
H        H      0.777300000000     0.189600000000     0.718700000000     0.0660181  
H        H      0.654500000000     0.132600000000     0.746400000000     0.0660181  
H        H      0.096100000000     0.832100000000     0.441700000000     0.0660181  
H        H      0.006800000000     0.718500000000     0.423000000000     0.0660181  
H        H      0.213900000000     0.573100000000     0.444200000000     0.0660181  
H        H      0.305300000000     0.686800000000     0.463000000000     0.0660181  
H        H      0.325100000000     0.693700000000     0.904400000000     0.0660181  
H        H      0.254500000000     0.697200000000     0.117700000000     0.0660181  
H        H      0.156000000000     0.800300000000     0.070800000000     0.0660181  
H        H      0.228600000000     0.800300000000     0.859900000000     0.0660181  
H        H      0.104300000000     0.074800000000     0.588500000000     0.0660181  
H        H      0.907200000000     0.916900000000     0.550600000000     0.0660181  
H        H      0.298500000000     0.536700000000     0.653100000000     0.0660181  
H        H      0.344500000000     0.658100000000     0.709200000000     0.0660181  
H        H      0.249700000000     0.764600000000     0.709200000000     0.0660181  
H        H      0.054700000000     0.606600000000     0.613500000000     0.0660181  
H        H      0.955500000000     0.785000000000     0.640600000000     0.0660181  
H        H      0.971400000000     0.697700000000     0.608100000000     0.0660181  
H        H      0.912300000000     0.595600000000     0.679800000000     0.0660181  
H        H      0.883700000000     0.540300000000     0.796800000000     0.0660181  
H        H      0.998200000000     0.734300000000     0.919000000000     0.0660181  
H        H      0.024400000000     0.786000000000     0.802000000000     0.0660181  
H        H      0.831900000000     0.508700000000     0.898600000000     0.0660181  
H        H      0.808200000000     0.457500000000     0.017700000000     0.0660181  
H        H      0.965100000000     0.623900000000     0.142300000000     0.0660181  
H        H      0.998400000000     0.671100000000     0.025100000000     0.0660181  
H        H      0.856100000000     0.443800000000     0.165400000000     0.0660181  
H        H      0.914300000000     0.513100000000     0.214700000000     0.0660181  
H        H      0.700600000000     0.464200000000     0.118600000000     0.0660181  
H        H      0.584900000000     0.638700000000     0.223500000000     0.0660181  
H        H      0.722700000000     0.689600000000     0.281300000000     0.0660181  
H        H      0.845500000000     0.632600000000     0.253600000000     0.0660181  
H        H      0.403900000000     0.332100000000     0.558300000000     0.0660181  
H        H      0.493200000000     0.218500000000     0.577000000000     0.0660181  
H        H      0.286100000000     0.073100000000     0.555800000000     0.0660181  
H        H      0.194700000000     0.186800000000     0.537000000000     0.0660181  
H        H      0.174900000000     0.193700000000     0.095600000000     0.0660181  
H        H      0.245500000000     0.197200000000     0.882300000000     0.0660181  
H        H      0.344000000000     0.300300000000     0.929200000000     0.0660181  
H        H      0.271400000000     0.300300000000     0.140100000000     0.0660181  
H        H      0.395700000000     0.574800000000     0.411500000000     0.0660181  
H        H      0.592800000000     0.416900000000     0.449400000000     0.0660181  
C        C      0.756300000000     0.923600000000     0.654600000000     0.011256   
C        C      0.784800000000     0.849500000000     0.687800000000     0.011256   
C        C      0.729200000000     0.786900000000     0.690700000000     0.011256   
C        C      0.631200000000     0.804600000000     0.662000000000     0.011256   
C        C      0.613500000000     0.879500000000     0.632200000000     0.011256   
C        C      0.489600000000     0.764800000000     0.653200000000     0.011256   
C        C      0.471100000000     0.803400000000     0.729600000000     0.011256   
C        C      0.429800000000     0.876200000000     0.728400000000     0.011256   
C        C      0.412800000000     0.909800000000     0.799300000000     0.011256   
C        C      0.438200000000     0.870500000000     0.872000000000     0.011256   
C        C      0.480400000000     0.795100000000     0.871200000000     0.011256   
C        C      0.495800000000     0.764000000000     0.800600000000     0.011256   
C        C      0.419800000000     0.903600000000     0.947700000000     0.011256   
C        C      0.361000000000     0.968300000000     0.947400000000     0.011256   
C        C      0.345800000000     0.998200000000     0.019300000000     0.011256   
C        C      0.384300000000     0.964800000000     0.092500000000     0.011256   
C        C      0.439400000000     0.900900000000     0.093400000000     0.011256   
C        C      0.458400000000     0.871500000000     0.022100000000     0.011256   
C        C      0.364700000000     0.997500000000     0.169800000000     0.011256   
C        C      0.203500000000     0.989900000000     0.151500000000     0.011256   
C        C      0.126500000000     0.955800000000     0.164100000000     0.011256   
C        C      0.134600000000     0.886500000000     0.213500000000     0.011256   
C        C      0.217300000000     0.855700000000     0.247400000000     0.011256   
C        C      0.290600000000     0.890200000000     0.232300000000     0.011256   
C        C      0.731700000000     0.155600000000     0.545400000000     0.011256   
C        C      0.793300000000     0.227700000000     0.549800000000     0.011256   
C        C      0.879400000000     0.219600000000     0.559000000000     0.011256   
C        C      0.932800000000     0.288100000000     0.569600000000     0.011256   
C        C      0.899000000000     0.365200000000     0.569500000000     0.011256   
C        C      0.958300000000     0.437800000000     0.578100000000     0.011256   
C        C      0.810000000000     0.374700000000     0.557100000000     0.011256   
C        C      0.755300000000     0.306900000000     0.546300000000     0.011256   
C        C      0.633500000000     0.380000000000     0.952700000000     0.011256   
C        C      0.707400000000     0.283800000000     0.061500000000     0.011256   
C        C      0.698000000000     0.314100000000     0.982800000000     0.011256   
C        C      0.750200000000     0.282000000000     0.934100000000     0.011256   
C        C      0.808500000000     0.219800000000     0.961800000000     0.011256   
C        C      0.814500000000     0.187100000000     0.038100000000     0.011256   
C        C      0.765500000000     0.220200000000     0.088100000000     0.011256   
C        C      0.874000000000     0.117000000000     0.064800000000     0.011256   
C        C      0.989200000000     0.008400000000     0.328700000000     0.011256   
C        C      0.994800000000     0.004200000000     0.418300000000     0.011256   
C        C      0.938300000000     0.955400000000     0.447000000000     0.011256   
C        C      0.055200000000     0.049000000000     0.469600000000     0.011256   
C        C      0.743700000000     0.423600000000     0.345400000000     0.011256   
C        C      0.715200000000     0.349500000000     0.312200000000     0.011256   
C        C      0.770800000000     0.286900000000     0.309300000000     0.011256   
C        C      0.868800000000     0.304600000000     0.338000000000     0.011256   
C        C      0.886500000000     0.379500000000     0.367800000000     0.011256   
C        C      0.010400000000     0.264800000000     0.346800000000     0.011256   
C        C      0.028900000000     0.303400000000     0.270400000000     0.011256   
C        C      0.070200000000     0.376200000000     0.271600000000     0.011256   
C        C      0.087200000000     0.409800000000     0.200700000000     0.011256   
C        C      0.061800000000     0.370500000000     0.128000000000     0.011256   
C        C      0.019600000000     0.295100000000     0.128800000000     0.011256   
C        C      0.004200000000     0.264000000000     0.199400000000     0.011256   
C        C      0.080200000000     0.403600000000     0.052300000000     0.011256   
C        C      0.139000000000     0.468300000000     0.052600000000     0.011256   
C        C      0.154200000000     0.498200000000     0.980700000000     0.011256   
C        C      0.115700000000     0.464800000000     0.907500000000     0.011256   
C        C      0.060600000000     0.400900000000     0.906600000000     0.011256   
C        C      0.041600000000     0.371500000000     0.977900000000     0.011256   
C        C      0.135300000000     0.497500000000     0.830200000000     0.011256   
C        C      0.296500000000     0.489900000000     0.848500000000     0.011256   
C        C      0.373500000000     0.455800000000     0.835900000000     0.011256   
C        C      0.365400000000     0.386500000000     0.786500000000     0.011256   
C        C      0.282700000000     0.355700000000     0.752600000000     0.011256   
C        C      0.209400000000     0.390200000000     0.767700000000     0.011256   
C        C      0.768300000000     0.655600000000     0.454600000000     0.011256   
C        C      0.706700000000     0.727700000000     0.450200000000     0.011256   
C        C      0.620600000000     0.719600000000     0.441000000000     0.011256   
C        C      0.567200000000     0.788100000000     0.430400000000     0.011256   
C        C      0.601000000000     0.865200000000     0.430500000000     0.011256   
C        C      0.541700000000     0.937800000000     0.421900000000     0.011256   
C        C      0.690000000000     0.874700000000     0.442900000000     0.011256   
C        C      0.744700000000     0.806900000000     0.453700000000     0.011256   
C        C      0.866500000000     0.880000000000     0.047300000000     0.011256   
C        C      0.792600000000     0.783800000000     0.938500000000     0.011256   
C        C      0.802000000000     0.814100000000     0.017200000000     0.011256   
C        C      0.749800000000     0.782000000000     0.065900000000     0.011256   
C        C      0.691500000000     0.719800000000     0.038200000000     0.011256   
C        C      0.685500000000     0.687100000000     0.961900000000     0.011256   
C        C      0.734500000000     0.720200000000     0.911900000000     0.011256   
C        C      0.626000000000     0.617000000000     0.935200000000     0.011256   
C        C      0.510800000000     0.508400000000     0.671300000000     0.011256   
C        C      0.505200000000     0.504200000000     0.581700000000     0.011256   
C        C      0.561700000000     0.455400000000     0.553000000000     0.011256   
C        C      0.444800000000     0.549000000000     0.530400000000     0.011256   
C        C      0.243700000000     0.076400000000     0.345400000000     0.011256   
C        C      0.215200000000     0.150500000000     0.312200000000     0.011256   
C        C      0.270800000000     0.213100000000     0.309300000000     0.011256   
C        C      0.368800000000     0.195400000000     0.338000000000     0.011256   
C        C      0.386500000000     0.120500000000     0.367800000000     0.011256   
C        C      0.510400000000     0.235200000000     0.346800000000     0.011256   
C        C      0.528900000000     0.196600000000     0.270400000000     0.011256   
C        C      0.570200000000     0.123800000000     0.271600000000     0.011256   
C        C      0.587200000000     0.090200000000     0.200700000000     0.011256   
C        C      0.561800000000     0.129500000000     0.128000000000     0.011256   
C        C      0.519600000000     0.204900000000     0.128800000000     0.011256   
C        C      0.504200000000     0.236000000000     0.199400000000     0.011256   
C        C      0.580200000000     0.096400000000     0.052300000000     0.011256   
C        C      0.639000000000     0.031700000000     0.052600000000     0.011256   
C        C      0.654200000000     0.001800000000     0.980700000000     0.011256   
C        C      0.615700000000     0.035200000000     0.907500000000     0.011256   
C        C      0.560600000000     0.099100000000     0.906600000000     0.011256   
C        C      0.541600000000     0.128500000000     0.977900000000     0.011256   
C        C      0.635300000000     0.002500000000     0.830200000000     0.011256   
C        C      0.796500000000     0.010100000000     0.848500000000     0.011256   
C        C      0.873500000000     0.044200000000     0.835900000000     0.011256   
C        C      0.865400000000     0.113500000000     0.786500000000     0.011256   
C        C      0.782700000000     0.144300000000     0.752600000000     0.011256   
C        C      0.709400000000     0.109800000000     0.767700000000     0.011256   
C        C      0.268300000000     0.844400000000     0.454600000000     0.011256   
C        C      0.206700000000     0.772300000000     0.450200000000     0.011256   
C        C      0.120600000000     0.780400000000     0.441000000000     0.011256   
C        C      0.067200000000     0.711900000000     0.430400000000     0.011256   
C        C      0.101000000000     0.634800000000     0.430500000000     0.011256   
C        C      0.041700000000     0.562200000000     0.421900000000     0.011256   
C        C      0.190000000000     0.625300000000     0.442900000000     0.011256   
C        C      0.244700000000     0.693100000000     0.453700000000     0.011256   
C        C      0.366500000000     0.620000000000     0.047300000000     0.011256   
C        C      0.292600000000     0.716200000000     0.938500000000     0.011256   
C        C      0.302000000000     0.685900000000     0.017200000000     0.011256   
C        C      0.249800000000     0.718000000000     0.065900000000     0.011256   
C        C      0.191500000000     0.780200000000     0.038200000000     0.011256   
C        C      0.185500000000     0.812900000000     0.961900000000     0.011256   
C        C      0.234500000000     0.779800000000     0.911900000000     0.011256   
C        C      0.126000000000     0.883000000000     0.935200000000     0.011256   
C        C      0.010800000000     0.991600000000     0.671300000000     0.011256   
C        C      0.005200000000     0.995800000000     0.581700000000     0.011256   
C        C      0.061700000000     0.044600000000     0.553000000000     0.011256   
C        C      0.944800000000     0.951000000000     0.530400000000     0.011256   
C        C      0.256300000000     0.576400000000     0.654600000000     0.011256   
C        C      0.284800000000     0.650500000000     0.687800000000     0.011256   
C        C      0.229200000000     0.713100000000     0.690700000000     0.011256   
C        C      0.131200000000     0.695400000000     0.662000000000     0.011256   
C        C      0.113500000000     0.620500000000     0.632200000000     0.011256   
C        C      0.989600000000     0.735200000000     0.653200000000     0.011256   
C        C      0.971100000000     0.696600000000     0.729600000000     0.011256   
C        C      0.929800000000     0.623800000000     0.728400000000     0.011256   
C        C      0.912800000000     0.590200000000     0.799300000000     0.011256   
C        C      0.938200000000     0.629500000000     0.872000000000     0.011256   
C        C      0.980400000000     0.704900000000     0.871200000000     0.011256   
C        C      0.995800000000     0.736000000000     0.800600000000     0.011256   
C        C      0.919800000000     0.596400000000     0.947700000000     0.011256   
C        C      0.861000000000     0.531700000000     0.947400000000     0.011256   
C        C      0.845800000000     0.501800000000     0.019300000000     0.011256   
C        C      0.884300000000     0.535200000000     0.092500000000     0.011256   
C        C      0.939400000000     0.599100000000     0.093400000000     0.011256   
C        C      0.958400000000     0.628500000000     0.022100000000     0.011256   
C        C      0.864700000000     0.502500000000     0.169800000000     0.011256   
C        C      0.703500000000     0.510100000000     0.151500000000     0.011256   
C        C      0.626500000000     0.544200000000     0.164100000000     0.011256   
C        C      0.634600000000     0.613500000000     0.213500000000     0.011256   
C        C      0.717300000000     0.644300000000     0.247400000000     0.011256   
C        C      0.790600000000     0.609800000000     0.232300000000     0.011256   
C        C      0.231700000000     0.344400000000     0.545400000000     0.011256   
C        C      0.293300000000     0.272300000000     0.549800000000     0.011256   
C        C      0.379400000000     0.280400000000     0.559000000000     0.011256   
C        C      0.432800000000     0.211900000000     0.569600000000     0.011256   
C        C      0.399000000000     0.134800000000     0.569500000000     0.011256   
C        C      0.458300000000     0.062200000000     0.578100000000     0.011256   
C        C      0.310000000000     0.125300000000     0.557100000000     0.011256   
C        C      0.255300000000     0.193100000000     0.546300000000     0.011256   
C        C      0.133500000000     0.120000000000     0.952700000000     0.011256   
C        C      0.207400000000     0.216200000000     0.061500000000     0.011256   
C        C      0.198000000000     0.185900000000     0.982800000000     0.011256   
C        C      0.250200000000     0.218000000000     0.934100000000     0.011256   
C        C      0.308500000000     0.280200000000     0.961800000000     0.011256   
C        C      0.314500000000     0.312900000000     0.038100000000     0.011256   
C        C      0.265500000000     0.279800000000     0.088100000000     0.011256   
C        C      0.374000000000     0.383000000000     0.064800000000     0.011256   
C        C      0.489200000000     0.491600000000     0.328700000000     0.011256   
C        C      0.494800000000     0.495800000000     0.418300000000     0.011256   
C        C      0.438300000000     0.544600000000     0.447000000000     0.011256   
C        C      0.555200000000     0.451000000000     0.469600000000     0.011256   
N        N      0.678400000000     0.941800000000     0.626300000000    -0.0946104  
N        N      0.283000000000     0.957400000000     0.186300000000    -0.0946104  
N        N      0.821600000000     0.441800000000     0.373700000000    -0.0946104  
N        N      0.217000000000     0.457400000000     0.813700000000    -0.0946104  
N        N      0.321600000000     0.058200000000     0.373700000000    -0.0946104  
N        N      0.717000000000     0.042600000000     0.813700000000    -0.0946104  
N        N      0.178400000000     0.558200000000     0.626300000000    -0.0946104  
N        N      0.783000000000     0.542600000000     0.186300000000    -0.0946104  
O        O      0.758600000000     0.086400000000     0.556600000000    -0.290922   
O        O      0.655100000000     0.165500000000     0.539400000000    -0.290922   
O        O      0.039100000000     0.427000000000     0.612600000000    -0.290922   
O        O      0.929800000000     0.505100000000     0.550300000000    -0.290922   
O        O      0.915200000000     0.089500000000     0.016310000000    -0.290922   
O        O      0.878400000000     0.088970000000     0.134380000000    -0.290922   
O        O      0.623300000000     0.398800000000     0.879240000000    -0.290922   
O        O      0.595100000000     0.412100000000     0.001000000000    -0.290922   
O        O      0.033600000000     0.059300000000     0.300500000000    -0.290922   
O        O      0.942200000000     0.957300000000     0.284280000000    -0.290922   
O        O      0.050690000000     0.987890000000     0.128820000000    -0.290922   
O        O      0.585200000000     0.745400000000     0.663700000000    -0.290922   
O        O      0.741400000000     0.586400000000     0.443400000000    -0.290922   
O        O      0.844900000000     0.665500000000     0.460600000000    -0.290922   
O        O      0.460900000000     0.927000000000     0.387400000000    -0.290922   
O        O      0.570200000000     0.005100000000     0.449700000000    -0.290922   
O        O      0.584800000000     0.589500000000     0.983690000000    -0.290922   
O        O      0.621600000000     0.588970000000     0.865620000000    -0.290922   
O        O      0.876700000000     0.898800000000     0.120760000000    -0.290922   
O        O      0.904900000000     0.912100000000     0.999000000000    -0.290922   
O        O      0.466400000000     0.559300000000     0.699500000000    -0.290922   
O        O      0.557800000000     0.457300000000     0.715720000000    -0.290922   
O        O      0.449310000000     0.487890000000     0.871180000000    -0.290922   
O        O      0.914800000000     0.245400000000     0.336300000000    -0.290922   
O        O      0.241400000000     0.913600000000     0.443400000000    -0.290922   
O        O      0.344900000000     0.834500000000     0.460600000000    -0.290922   
O        O      0.960900000000     0.573000000000     0.387400000000    -0.290922   
O        O      0.070200000000     0.494900000000     0.449700000000    -0.290922   
O        O      0.084800000000     0.910500000000     0.983690000000    -0.290922   
O        O      0.121600000000     0.911030000000     0.865620000000    -0.290922   
O        O      0.376700000000     0.601200000000     0.120760000000    -0.290922   
O        O      0.404900000000     0.587900000000     0.999000000000    -0.290922   
O        O      0.966400000000     0.940700000000     0.699500000000    -0.290922   
O        O      0.057800000000     0.042700000000     0.715720000000    -0.290922   
O        O      0.949310000000     0.012110000000     0.871180000000    -0.290922   
O        O      0.414800000000     0.254600000000     0.336300000000    -0.290922   
O        O      0.258600000000     0.413600000000     0.556600000000    -0.290922   
O        O      0.155100000000     0.334500000000     0.539400000000    -0.290922   
O        O      0.539100000000     0.073000000000     0.612600000000    -0.290922   
O        O      0.429800000000     0.994900000000     0.550300000000    -0.290922   
O        O      0.415200000000     0.410500000000     0.016310000000    -0.290922   
O        O      0.378400000000     0.411030000000     0.134380000000    -0.290922   
O        O      0.123300000000     0.101200000000     0.879240000000    -0.290922   
O        O      0.095100000000     0.087900000000     0.001000000000    -0.290922   
O        O      0.533600000000     0.440700000000     0.300500000000    -0.290922   
O        O      0.442200000000     0.542700000000     0.284280000000    -0.290922   
O        O      0.550690000000     0.512110000000     0.128820000000    -0.290922   
O        O      0.085200000000     0.754600000000     0.663700000000    -0.290922   


