data_NISCOJ_original

_audit_creation_method RASPA-1.0
_audit_creation_date 2022-1-29
_audit_author_name 'Felipe Lopes de Oliveira <felipe.lopes.oliveira@ibm.com>'

_cell_length_a    7.8463
_cell_length_b    18.3139
_cell_length_c    19.376
_cell_angle_alpha 90
_cell_angle_beta  90
_cell_angle_gamma 90
_cell_volume      2784.26

_symmetry_cell_setting          triclinic
_symmetry_space_group_name_Hall 'P 1'
_symmetry_space_group_name_H-M  'P 1'
_symmetry_Int_Tables_number     1

_symmetry_equiv_pos_as_xyz 'x,y,z'

loop_
_atom_site_label
_atom_site_type_symbol
_atom_site_fract_x
_atom_site_fract_y
_atom_site_fract_z
_atom_site_charge
Zn       Zn     0.525380000000     0.508140000000     0.499990000000     0.41996    
Zn       Zn     0.474620000000     0.491860000000     0.999990000000     0.41996    
Zn       Zn     0.474620000000     0.008140000000     0.499990000000     0.41996    
Zn       Zn     0.525380000000     0.991860000000     0.999990000000     0.41996    
H        H      0.635400000000     0.725300000000     0.480800000000     0.168424   
H        H      0.864400000000     0.648000000000     0.458600000000     0.168424   
H        H      0.186600000000     0.819500000000     0.475200000000     0.168424   
H        H      0.954900000000     0.897400000000     0.490600000000     0.168424   
H        H      0.043700000000     0.561200000000     0.534200000000     0.168424   
H        H      0.095100000000     0.629500000000     0.579900000000     0.168424   
H        H      0.212100000000     0.559000000000     0.579300000000     0.168424   
H        H      0.359200000000     0.792500000000     0.372800000000     0.168424   
H        H      0.206700000000     0.753700000000     0.333700000000     0.168424   
H        H      0.397500000000     0.733100000000     0.315400000000     0.168424   
H        H      0.273700000000     0.565100000000     0.771100000000     0.168424   
H        H      0.055400000000     0.576500000000     0.689900000000     0.168424   
H        H      0.718800000000     0.493700000000     0.825700000000     0.168424   
H        H      0.937500000000     0.485000000000     0.907900000000     0.168424   
H        H      0.753600000000     0.406400000000     0.587500000000     0.168424   
H        H      0.826000000000     0.404900000000     0.663800000000     0.168424   
H        H      0.927100000000     0.446600000000     0.605100000000     0.168424   
H        H      0.527900000000     0.693300000000     0.730100000000     0.168424   
H        H      0.719800000000     0.680700000000     0.752500000000     0.168424   
H        H      0.572100000000     0.635100000000     0.787900000000     0.168424   
H        H      0.364600000000     0.274700000000     0.980800000000     0.168424   
H        H      0.135600000000     0.352000000000     0.958600000000     0.168424   
H        H      0.813400000000     0.180500000000     0.975200000000     0.168424   
H        H      0.045100000000     0.102600000000     0.990600000000     0.168424   
H        H      0.956300000000     0.438800000000     0.034200000000     0.168424   
H        H      0.904900000000     0.370500000000     0.079900000000     0.168424   
H        H      0.787900000000     0.441000000000     0.079300000000     0.168424   
H        H      0.640800000000     0.207500000000     0.872800000000     0.168424   
H        H      0.793300000000     0.246300000000     0.833700000000     0.168424   
H        H      0.602500000000     0.266900000000     0.815400000000     0.168424   
H        H      0.726300000000     0.434900000000     0.271100000000     0.168424   
H        H      0.944600000000     0.423500000000     0.189900000000     0.168424   
H        H      0.281200000000     0.506300000000     0.325700000000     0.168424   
H        H      0.062500000000     0.515000000000     0.407900000000     0.168424   
H        H      0.246400000000     0.593600000000     0.087500000000     0.168424   
H        H      0.174000000000     0.595100000000     0.163800000000     0.168424   
H        H      0.072900000000     0.553400000000     0.105100000000     0.168424   
H        H      0.472100000000     0.306700000000     0.230100000000     0.168424   
H        H      0.280200000000     0.319300000000     0.252500000000     0.168424   
H        H      0.427900000000     0.364900000000     0.287900000000     0.168424   
H        H      0.364600000000     0.225300000000     0.480800000000     0.168424   
H        H      0.135600000000     0.148000000000     0.458600000000     0.168424   
H        H      0.813400000000     0.319500000000     0.475200000000     0.168424   
H        H      0.045100000000     0.397400000000     0.490600000000     0.168424   
H        H      0.956300000000     0.061200000000     0.534200000000     0.168424   
H        H      0.904900000000     0.129500000000     0.579900000000     0.168424   
H        H      0.787900000000     0.059000000000     0.579300000000     0.168424   
H        H      0.640800000000     0.292500000000     0.372800000000     0.168424   
H        H      0.793300000000     0.253700000000     0.333700000000     0.168424   
H        H      0.602500000000     0.233100000000     0.315400000000     0.168424   
H        H      0.726300000000     0.065100000000     0.771100000000     0.168424   
H        H      0.944600000000     0.076500000000     0.689900000000     0.168424   
H        H      0.281200000000     0.993700000000     0.825700000000     0.168424   
H        H      0.062500000000     0.985000000000     0.907900000000     0.168424   
H        H      0.246400000000     0.906400000000     0.587500000000     0.168424   
H        H      0.174000000000     0.904900000000     0.663800000000     0.168424   
H        H      0.072900000000     0.946600000000     0.605100000000     0.168424   
H        H      0.472100000000     0.193300000000     0.730100000000     0.168424   
H        H      0.280200000000     0.180700000000     0.752500000000     0.168424   
H        H      0.427900000000     0.135100000000     0.787900000000     0.168424   
H        H      0.635400000000     0.774700000000     0.980800000000     0.168424   
H        H      0.864400000000     0.852000000000     0.958600000000     0.168424   
H        H      0.186600000000     0.680500000000     0.975200000000     0.168424   
H        H      0.954900000000     0.602600000000     0.990600000000     0.168424   
H        H      0.043700000000     0.938800000000     0.034200000000     0.168424   
H        H      0.095100000000     0.870500000000     0.079900000000     0.168424   
H        H      0.212100000000     0.941000000000     0.079300000000     0.168424   
H        H      0.359200000000     0.707500000000     0.872800000000     0.168424   
H        H      0.206700000000     0.746300000000     0.833700000000     0.168424   
H        H      0.397500000000     0.766900000000     0.815400000000     0.168424   
H        H      0.273700000000     0.934900000000     0.271100000000     0.168424   
H        H      0.055400000000     0.923500000000     0.189900000000     0.168424   
H        H      0.718800000000     0.006300000000     0.325700000000     0.168424   
H        H      0.937500000000     0.015000000000     0.407900000000     0.168424   
H        H      0.753600000000     0.093600000000     0.087500000000     0.168424   
H        H      0.826000000000     0.095100000000     0.163800000000     0.168424   
H        H      0.927100000000     0.053400000000     0.105100000000     0.168424   
H        H      0.527900000000     0.806700000000     0.230100000000     0.168424   
H        H      0.719800000000     0.819300000000     0.252500000000     0.168424   
H        H      0.572100000000     0.864900000000     0.287900000000     0.168424   
C        C      0.622700000000     0.869430000000     0.501100000000    -0.067014   
C        C      0.772000000000     0.819000000000     0.487830000000    -0.067014   
C        C      0.746500000000     0.744460000000     0.478620000000    -0.067014   
C        C      0.882600000000     0.698020000000     0.466320000000    -0.067014   
C        C      0.046800000000     0.726890000000     0.465670000000    -0.067014   
C        C      0.075000000000     0.800740000000     0.475370000000    -0.067014   
C        C      0.937000000000     0.846900000000     0.485390000000    -0.067014   
C        C      0.138300000000     0.589860000000     0.551660000000    -0.067014   
C        C      0.237100000000     0.620550000000     0.492440000000    -0.067014   
C        C      0.317800000000     0.688620000000     0.406000000000    -0.067014   
C        C      0.320600000000     0.747110000000     0.352300000000    -0.067014   
C        C      0.273400000000     0.517220000000     0.897650000000    -0.067014   
C        C      0.126500000000     0.523380000000     0.846990000000    -0.067014   
C        C      0.162100000000     0.550600000000     0.782340000000    -0.067014   
C        C      0.032100000000     0.556800000000     0.733630000000    -0.067014   
C        C      0.869600000000     0.533880000000     0.749590000000    -0.067014   
C        C      0.830700000000     0.507790000000     0.814510000000    -0.067014   
C        C      0.961800000000     0.502710000000     0.863400000000    -0.067014   
C        C      0.814700000000     0.434060000000     0.622330000000    -0.067014   
C        C      0.719100000000     0.502090000000     0.638430000000    -0.067014   
C        C      0.628400000000     0.600070000000     0.691550000000    -0.067014   
C        C      0.610500000000     0.657200000000     0.745100000000    -0.067014   
C        C      0.377300000000     0.130570000000     0.001100000000    -0.067014   
C        C      0.228000000000     0.181000000000     0.987830000000    -0.067014   
C        C      0.253500000000     0.255540000000     0.978620000000    -0.067014   
C        C      0.117400000000     0.301980000000     0.966320000000    -0.067014   
C        C      0.953200000000     0.273110000000     0.965670000000    -0.067014   
C        C      0.925000000000     0.199260000000     0.975370000000    -0.067014   
C        C      0.063000000000     0.153100000000     0.985390000000    -0.067014   
C        C      0.861700000000     0.410140000000     0.051660000000    -0.067014   
C        C      0.762900000000     0.379450000000     0.992440000000    -0.067014   
C        C      0.682200000000     0.311380000000     0.906000000000    -0.067014   
C        C      0.679400000000     0.252890000000     0.852300000000    -0.067014   
C        C      0.726600000000     0.482780000000     0.397650000000    -0.067014   
C        C      0.873500000000     0.476620000000     0.346990000000    -0.067014   
C        C      0.837900000000     0.449400000000     0.282340000000    -0.067014   
C        C      0.967900000000     0.443200000000     0.233630000000    -0.067014   
C        C      0.130400000000     0.466120000000     0.249590000000    -0.067014   
C        C      0.169300000000     0.492210000000     0.314510000000    -0.067014   
C        C      0.038200000000     0.497290000000     0.363400000000    -0.067014   
C        C      0.185300000000     0.565940000000     0.122330000000    -0.067014   
C        C      0.280900000000     0.497910000000     0.138430000000    -0.067014   
C        C      0.371600000000     0.399930000000     0.191550000000    -0.067014   
C        C      0.389500000000     0.342800000000     0.245100000000    -0.067014   
C        C      0.377300000000     0.369430000000     0.501100000000    -0.067014   
C        C      0.228000000000     0.319000000000     0.487830000000    -0.067014   
C        C      0.253500000000     0.244460000000     0.478620000000    -0.067014   
C        C      0.117400000000     0.198020000000     0.466320000000    -0.067014   
C        C      0.953200000000     0.226890000000     0.465670000000    -0.067014   
C        C      0.925000000000     0.300740000000     0.475370000000    -0.067014   
C        C      0.063000000000     0.346900000000     0.485390000000    -0.067014   
C        C      0.861700000000     0.089860000000     0.551660000000    -0.067014   
C        C      0.762900000000     0.120550000000     0.492440000000    -0.067014   
C        C      0.682200000000     0.188620000000     0.406000000000    -0.067014   
C        C      0.679400000000     0.247110000000     0.352300000000    -0.067014   
C        C      0.726600000000     0.017220000000     0.897650000000    -0.067014   
C        C      0.873500000000     0.023380000000     0.846990000000    -0.067014   
C        C      0.837900000000     0.050600000000     0.782340000000    -0.067014   
C        C      0.967900000000     0.056800000000     0.733630000000    -0.067014   
C        C      0.130400000000     0.033880000000     0.749590000000    -0.067014   
C        C      0.169300000000     0.007790000000     0.814510000000    -0.067014   
C        C      0.038200000000     0.002710000000     0.863400000000    -0.067014   
C        C      0.185300000000     0.934060000000     0.622330000000    -0.067014   
C        C      0.280900000000     0.002090000000     0.638430000000    -0.067014   
C        C      0.371600000000     0.100070000000     0.691550000000    -0.067014   
C        C      0.389500000000     0.157200000000     0.745100000000    -0.067014   
C        C      0.622700000000     0.630570000000     0.001100000000    -0.067014   
C        C      0.772000000000     0.681000000000     0.987830000000    -0.067014   
C        C      0.746500000000     0.755540000000     0.978620000000    -0.067014   
C        C      0.882600000000     0.801980000000     0.966320000000    -0.067014   
C        C      0.046800000000     0.773110000000     0.965670000000    -0.067014   
C        C      0.075000000000     0.699260000000     0.975370000000    -0.067014   
C        C      0.937000000000     0.653100000000     0.985390000000    -0.067014   
C        C      0.138300000000     0.910140000000     0.051660000000    -0.067014   
C        C      0.237100000000     0.879450000000     0.992440000000    -0.067014   
C        C      0.317800000000     0.811380000000     0.906000000000    -0.067014   
C        C      0.320600000000     0.752890000000     0.852300000000    -0.067014   
C        C      0.273400000000     0.982780000000     0.397650000000    -0.067014   
C        C      0.126500000000     0.976620000000     0.346990000000    -0.067014   
C        C      0.162100000000     0.949400000000     0.282340000000    -0.067014   
C        C      0.032100000000     0.943200000000     0.233630000000    -0.067014   
C        C      0.869600000000     0.966120000000     0.249590000000    -0.067014   
C        C      0.830700000000     0.992210000000     0.314510000000    -0.067014   
C        C      0.961800000000     0.997290000000     0.363400000000    -0.067014   
C        C      0.814700000000     0.065940000000     0.122330000000    -0.067014   
C        C      0.719100000000     0.997910000000     0.138430000000    -0.067014   
C        C      0.628400000000     0.899930000000     0.191550000000    -0.067014   
C        C      0.610500000000     0.842800000000     0.245100000000    -0.067014   
N        N      0.383400000000     0.595310000000     0.468980000000    -0.186159   
N        N      0.434000000000     0.638250000000     0.413220000000    -0.186159   
N        N      0.191100000000     0.679550000000     0.454070000000    -0.186159   
N        N      0.602100000000     0.532600000000     0.600120000000    -0.186159   
N        N      0.543700000000     0.595360000000     0.633880000000    -0.186159   
N        N      0.739700000000     0.542430000000     0.697630000000    -0.186159   
N        N      0.616600000000     0.404690000000     0.968980000000    -0.186159   
N        N      0.566000000000     0.361750000000     0.913220000000    -0.186159   
N        N      0.808900000000     0.320450000000     0.954070000000    -0.186159   
N        N      0.397900000000     0.467400000000     0.100120000000    -0.186159   
N        N      0.456300000000     0.404640000000     0.133880000000    -0.186159   
N        N      0.260300000000     0.457570000000     0.197630000000    -0.186159   
N        N      0.616600000000     0.095310000000     0.468980000000    -0.186159   
N        N      0.566000000000     0.138250000000     0.413220000000    -0.186159   
N        N      0.808900000000     0.179550000000     0.454070000000    -0.186159   
N        N      0.397900000000     0.032600000000     0.600120000000    -0.186159   
N        N      0.456300000000     0.095360000000     0.633880000000    -0.186159   
N        N      0.260300000000     0.042430000000     0.697630000000    -0.186159   
N        N      0.383400000000     0.904690000000     0.968980000000    -0.186159   
N        N      0.434000000000     0.861750000000     0.913220000000    -0.186159   
N        N      0.191100000000     0.820450000000     0.954070000000    -0.186159   
N        N      0.602100000000     0.967400000000     0.100120000000    -0.186159   
N        N      0.543700000000     0.904640000000     0.133880000000    -0.186159   
N        N      0.739700000000     0.957570000000     0.197630000000    -0.186159   
O        O      0.659280000000     0.937210000000     0.505960000000    -0.299297   
O        O      0.476800000000     0.843940000000     0.507200000000    -0.299297   
O        O      0.240000000000     0.493790000000     0.958150000000    -0.299297   
O        O      0.419700000000     0.533420000000     0.879390000000    -0.299297   
O        O      0.340720000000     0.062790000000     0.005960000000    -0.299297   
O        O      0.523200000000     0.156060000000     0.007200000000    -0.299297   
O        O      0.760000000000     0.506210000000     0.458150000000    -0.299297   
O        O      0.580300000000     0.466580000000     0.379390000000    -0.299297   
O        O      0.340720000000     0.437210000000     0.505960000000    -0.299297   
O        O      0.523200000000     0.343940000000     0.507200000000    -0.299297   
O        O      0.760000000000     0.993790000000     0.958150000000    -0.299297   
O        O      0.580300000000     0.033420000000     0.879390000000    -0.299297   
O        O      0.659280000000     0.562790000000     0.005960000000    -0.299297   
O        O      0.476800000000     0.656060000000     0.007200000000    -0.299297   
O        O      0.240000000000     0.006210000000     0.458150000000    -0.299297   
O        O      0.419700000000     0.966580000000     0.379390000000    -0.299297   


