data_NOCKUM_original

_audit_creation_method RASPA-1.0
_audit_creation_date 2022-1-31
_audit_author_name 'Felipe Lopes de Oliveira <felipe.lopes.oliveira@ibm.com>'

_cell_length_a    10.684
_cell_length_b    13.8482
_cell_length_c    14.9604
_cell_angle_alpha 76.4666
_cell_angle_beta  69.0792
_cell_angle_gamma 67.3094
_cell_volume      1895.57

_symmetry_cell_setting          triclinic
_symmetry_space_group_name_Hall 'P 1'
_symmetry_space_group_name_H-M  'P 1'
_symmetry_Int_Tables_number     1

_symmetry_equiv_pos_as_xyz 'x,y,z'

loop_
_atom_site_label
_atom_site_type_symbol
_atom_site_fract_x
_atom_site_fract_y
_atom_site_fract_z
_atom_site_charge
Ca       Ca     0.506650000000     0.968100000000     0.383260000000     1.37773    
Ca       Ca     0.858010000000     0.531900000000     0.116740000000     1.37773    
Ca       Ca     0.493350000000     0.031900000000     0.616740000000     1.37773    
Ca       Ca     0.141990000000     0.468100000000     0.883260000000     1.37773    
Ca       Ca     0.783060000000     0.750000000000     0.250000000000     1.37773    
Ca       Ca     0.216940000000     0.250000000000     0.750000000000     1.37773    
H        H      0.729400000000     0.180500000000     0.245700000000     0.0283387  
H        H      0.817100000000     0.312100000000     0.149100000000     0.0283387  
H        H      0.138700000000     0.094400000000     0.984000000000     0.0283387  
H        H      0.054100000000     0.962500000000     0.084700000000     0.0283387  
H        H      0.630600000000     0.837800000000     0.064600000000     0.0283387  
H        H      0.369200000000     0.137900000000     0.095100000000     0.0283387  
H        H      0.155600000000     0.319500000000     0.254300000000     0.0283387  
H        H      0.278300000000     0.187900000000     0.350900000000     0.0283387  
H        H      0.217100000000     0.405600000000     0.516000000000     0.0283387  
H        H      0.101300000000     0.537500000000     0.415300000000     0.0283387  
H        H      0.533000000000     0.662200000000     0.435400000000     0.0283387  
H        H      0.602200000000     0.362100000000     0.404900000000     0.0283387  
H        H      0.270600000000     0.819500000000     0.754300000000     0.0283387  
H        H      0.182900000000     0.687900000000     0.850900000000     0.0283387  
H        H      0.861300000000     0.905600000000     0.016000000000     0.0283387  
H        H      0.945900000000     0.037500000000     0.915300000000     0.0283387  
H        H      0.369400000000     0.162200000000     0.935400000000     0.0283387  
H        H      0.630800000000     0.862100000000     0.904900000000     0.0283387  
H        H      0.844400000000     0.680500000000     0.745700000000     0.0283387  
H        H      0.721700000000     0.812100000000     0.649100000000     0.0283387  
H        H      0.782900000000     0.594400000000     0.484000000000     0.0283387  
H        H      0.898700000000     0.462500000000     0.584700000000     0.0283387  
H        H      0.467000000000     0.337800000000     0.564600000000     0.0283387  
H        H      0.397800000000     0.637900000000     0.595100000000     0.0283387  
C        C      0.821600000000     0.975100000000     0.236700000000     0.0644476  
C        C      0.882600000000     0.058600000000     0.174400000000     0.0644476  
C        C      0.813200000000     0.162900000000     0.192900000000     0.0644476  
C        C      0.864700000000     0.241100000000     0.135300000000     0.0644476  
C        C      0.987000000000     0.215900000000     0.056700000000     0.0644476  
C        C      0.040600000000     0.302300000000     0.993700000000     0.0644476  
C        C      0.056300000000     0.111900000000     0.037700000000     0.0644476  
C        C      0.005000000000     0.033800000000     0.097000000000     0.0644476  
C        C      0.498600000000     0.971700000000     0.198500000000     0.0644476  
C        C      0.498300000000     0.985300000000     0.095700000000     0.0644476  
C        C      0.577000000000     0.903800000000     0.038600000000     0.0644476  
C        C      0.422300000000     0.081500000000     0.056500000000     0.0644476  
C        C      0.033400000000     0.524900000000     0.263300000000     0.0644476  
C        C      0.115600000000     0.441400000000     0.325600000000     0.0644476  
C        C      0.169000000000     0.337100000000     0.307100000000     0.0644476  
C        C      0.241100000000     0.258900000000     0.364700000000     0.0644476  
C        C      0.259600000000     0.284100000000     0.443300000000     0.0644476  
C        C      0.336600000000     0.197700000000     0.506300000000     0.0644476  
C        C      0.205900000000     0.388100000000     0.462300000000     0.0644476  
C        C      0.135800000000     0.466200000000     0.403000000000     0.0644476  
C        C      0.668800000000     0.528300000000     0.301500000000     0.0644476  
C        C      0.579300000000     0.514700000000     0.404300000000     0.0644476  
C        C      0.519400000000     0.596200000000     0.461400000000     0.0644476  
C        C      0.560300000000     0.418500000000     0.443500000000     0.0644476  
C        C      0.178400000000     0.024900000000     0.763300000000     0.0644476  
C        C      0.117400000000     0.941400000000     0.825600000000     0.0644476  
C        C      0.186800000000     0.837100000000     0.807100000000     0.0644476  
C        C      0.135300000000     0.758900000000     0.864700000000     0.0644476  
C        C      0.013000000000     0.784100000000     0.943300000000     0.0644476  
C        C      0.959400000000     0.697700000000     0.006300000000     0.0644476  
C        C      0.943700000000     0.888100000000     0.962300000000     0.0644476  
C        C      0.995000000000     0.966200000000     0.903000000000     0.0644476  
C        C      0.501400000000     0.028300000000     0.801500000000     0.0644476  
C        C      0.501700000000     0.014700000000     0.904300000000     0.0644476  
C        C      0.423000000000     0.096200000000     0.961400000000     0.0644476  
C        C      0.577700000000     0.918500000000     0.943500000000     0.0644476  
C        C      0.966600000000     0.475100000000     0.736700000000     0.0644476  
C        C      0.884400000000     0.558600000000     0.674400000000     0.0644476  
C        C      0.831000000000     0.662900000000     0.692900000000     0.0644476  
C        C      0.758900000000     0.741100000000     0.635300000000     0.0644476  
C        C      0.740400000000     0.715900000000     0.556700000000     0.0644476  
C        C      0.663400000000     0.802300000000     0.493700000000     0.0644476  
C        C      0.794100000000     0.611900000000     0.537700000000     0.0644476  
C        C      0.864200000000     0.533800000000     0.597000000000     0.0644476  
C        C      0.331200000000     0.471700000000     0.698500000000     0.0644476  
C        C      0.420700000000     0.485300000000     0.595700000000     0.0644476  
C        C      0.480600000000     0.403800000000     0.538600000000     0.0644476  
C        C      0.439700000000     0.581500000000     0.556500000000     0.0644476  
O        O      0.711260000000     0.005990000000     0.307090000000    -0.501667   
O        O      0.879730000000     0.883070000000     0.213870000000    -0.501667   
O        O      0.132030000000     0.284990000000     0.913350000000    -0.501667   
O        O      0.993170000000     0.391360000000     0.024900000000    -0.501667   
O        O      0.574120000000     0.884910000000     0.232850000000    -0.501667   
O        O      0.423050000000     0.047550000000     0.247550000000    -0.501667   
O        O      0.024340000000     0.494010000000     0.192910000000    -0.501667   
O        O      0.976670000000     0.616930000000     0.286130000000    -0.501667   
O        O      0.330370000000     0.215010000000     0.586650000000    -0.501667   
O        O      0.409430000000     0.108640000000     0.475100000000    -0.501667   
O        O      0.691880000000     0.615090000000     0.267150000000    -0.501667   
O        O      0.718150000000     0.452450000000     0.252450000000    -0.501667   
O        O      0.288740000000     0.994010000000     0.692910000000    -0.501667   
O        O      0.120270000000     0.116930000000     0.786130000000    -0.501667   
O        O      0.867970000000     0.715010000000     0.086650000000    -0.501667   
O        O      0.006830000000     0.608640000000     0.975100000000    -0.501667   
O        O      0.425880000000     0.115090000000     0.767150000000    -0.501667   
O        O      0.576950000000     0.952450000000     0.752450000000    -0.501667   
O        O      0.975660000000     0.505990000000     0.807090000000    -0.501667   
O        O      0.023330000000     0.383070000000     0.713870000000    -0.501667   
O        O      0.669630000000     0.784990000000     0.413350000000    -0.501667   
O        O      0.590570000000     0.891360000000     0.524900000000    -0.501667   
O        O      0.308120000000     0.384910000000     0.732850000000    -0.501667   
O        O      0.281850000000     0.547550000000     0.747550000000    -0.501667   


