data_NURMUJ_original

_audit_creation_method RASPA-1.0
_audit_creation_date 2022-1-31
_audit_author_name 'Felipe Lopes de Oliveira <felipe.lopes.oliveira@ibm.com>'

_cell_length_a    10.0861
_cell_length_b    10.2527
_cell_length_c    16.4013
_cell_angle_alpha 90
_cell_angle_beta  95.478
_cell_angle_gamma 90
_cell_volume      1688.31

_symmetry_cell_setting          triclinic
_symmetry_space_group_name_Hall 'P 1'
_symmetry_space_group_name_H-M  'P 1'
_symmetry_Int_Tables_number     1

_symmetry_equiv_pos_as_xyz 'x,y,z'

loop_
_atom_site_label
_atom_site_type_symbol
_atom_site_fract_x
_atom_site_fract_y
_atom_site_fract_z
_atom_site_charge
Zn       Zn     0.227900000000     0.760870000000     0.076450000000     0.427748   
Zn       Zn     0.772100000000     0.260870000000     0.423550000000     0.427748   
Zn       Zn     0.772100000000     0.239130000000     0.923550000000     0.427748   
Zn       Zn     0.227900000000     0.739130000000     0.576450000000     0.427748   
Zn       Zn     0.000000000000     0.000000000000     0.000000000000     0.427748   
Zn       Zn     0.000000000000     0.500000000000     0.500000000000     0.427748   
H        H      0.679300000000     0.777100000000     0.077700000000     0.0614059  
H        H      0.955100000000     0.643800000000     0.250100000000     0.0614059  
H        H      0.568700000000     0.563600000000     0.264300000000     0.0614059  
H        H      0.320700000000     0.277100000000     0.422300000000     0.0614059  
H        H      0.044900000000     0.143800000000     0.249900000000     0.0614059  
H        H      0.431300000000     0.063600000000     0.235700000000     0.0614059  
H        H      0.320700000000     0.222900000000     0.922300000000     0.0614059  
H        H      0.044900000000     0.356200000000     0.749900000000     0.0614059  
H        H      0.431300000000     0.436400000000     0.735700000000     0.0614059  
H        H      0.679300000000     0.722900000000     0.577700000000     0.0614059  
H        H      0.955100000000     0.856200000000     0.750100000000     0.0614059  
H        H      0.568700000000     0.936400000000     0.764300000000     0.0614059  
C        C      0.457700000000     0.692600000000     0.134400000000     0.0912552  
C        C      0.941100000000     0.779400000000     0.110620000000     0.0912552  
C        C      0.802300000000     0.521800000000     0.349250000000     0.0912552  
C        C      0.601000000000     0.674000000000     0.166580000000     0.0912552  
C        C      0.701300000000     0.730700000000     0.125820000000     0.0912552  
C        C      0.834600000000     0.718700000000     0.156590000000     0.0912552  
C        C      0.866500000000     0.650900000000     0.228830000000     0.0912552  
C        C      0.767200000000     0.593400000000     0.269880000000     0.0912552  
C        C      0.635000000000     0.604000000000     0.237750000000     0.0912552  
C        C      0.542300000000     0.192600000000     0.365600000000     0.0912552  
C        C      0.058900000000     0.279400000000     0.389380000000     0.0912552  
C        C      0.197700000000     0.021800000000     0.150750000000     0.0912552  
C        C      0.399000000000     0.174000000000     0.333420000000     0.0912552  
C        C      0.298700000000     0.230700000000     0.374180000000     0.0912552  
C        C      0.165400000000     0.218700000000     0.343410000000     0.0912552  
C        C      0.133500000000     0.150900000000     0.271170000000     0.0912552  
C        C      0.232800000000     0.093400000000     0.230120000000     0.0912552  
C        C      0.365000000000     0.104000000000     0.262250000000     0.0912552  
C        C      0.542300000000     0.307400000000     0.865600000000     0.0912552  
C        C      0.058900000000     0.220600000000     0.889380000000     0.0912552  
C        C      0.197700000000     0.478200000000     0.650750000000     0.0912552  
C        C      0.399000000000     0.326000000000     0.833420000000     0.0912552  
C        C      0.298700000000     0.269300000000     0.874180000000     0.0912552  
C        C      0.165400000000     0.281300000000     0.843410000000     0.0912552  
C        C      0.133500000000     0.349100000000     0.771170000000     0.0912552  
C        C      0.232800000000     0.406600000000     0.730120000000     0.0912552  
C        C      0.365000000000     0.396000000000     0.762250000000     0.0912552  
C        C      0.457700000000     0.807400000000     0.634400000000     0.0912552  
C        C      0.941100000000     0.720600000000     0.610620000000     0.0912552  
C        C      0.802300000000     0.978200000000     0.849250000000     0.0912552  
C        C      0.601000000000     0.826000000000     0.666580000000     0.0912552  
C        C      0.701300000000     0.769300000000     0.625820000000     0.0912552  
C        C      0.834600000000     0.781300000000     0.656590000000     0.0912552  
C        C      0.866500000000     0.849100000000     0.728830000000     0.0912552  
C        C      0.767200000000     0.906600000000     0.769880000000     0.0912552  
C        C      0.635000000000     0.896000000000     0.737750000000     0.0912552  
O        O      0.367320000000     0.664430000000     0.178170000000    -0.274523   
O        O      0.433430000000     0.738310000000     0.063060000000    -0.274523   
O        O      0.902100000000     0.855290000000     0.053550000000    -0.274523   
O        O      0.059720000000     0.747240000000     0.132800000000    -0.274523   
O        O      0.909700000000     0.553400000000     0.388210000000    -0.274523   
O        O      0.720930000000     0.437640000000     0.368460000000    -0.274523   
O        O      0.632680000000     0.164430000000     0.321830000000    -0.274523   
O        O      0.566570000000     0.238310000000     0.436940000000    -0.274523   
O        O      0.097900000000     0.355290000000     0.446450000000    -0.274523   
O        O      0.940280000000     0.247240000000     0.367200000000    -0.274523   
O        O      0.090300000000     0.053400000000     0.111790000000    -0.274523   
O        O      0.279070000000     0.937640000000     0.131540000000    -0.274523   
O        O      0.632680000000     0.335570000000     0.821830000000    -0.274523   
O        O      0.566570000000     0.261690000000     0.936940000000    -0.274523   
O        O      0.097900000000     0.144710000000     0.946450000000    -0.274523   
O        O      0.940280000000     0.252760000000     0.867200000000    -0.274523   
O        O      0.090300000000     0.446600000000     0.611790000000    -0.274523   
O        O      0.279070000000     0.562360000000     0.631540000000    -0.274523   
O        O      0.367320000000     0.835570000000     0.678170000000    -0.274523   
O        O      0.433430000000     0.761690000000     0.563060000000    -0.274523   
O        O      0.902100000000     0.644710000000     0.553550000000    -0.274523   
O        O      0.059720000000     0.752760000000     0.632800000000    -0.274523   
O        O      0.909700000000     0.946600000000     0.888210000000    -0.274523   
O        O      0.720930000000     0.062360000000     0.868460000000    -0.274523   


