data_ODODES_original

_audit_creation_method RASPA-1.0
_audit_creation_date 2022-1-31
_audit_author_name 'Felipe Lopes de Oliveira <felipe.lopes.oliveira@ibm.com>'

_cell_length_a    13.8443
_cell_length_b    14.5615
_cell_length_c    23.9659
_cell_angle_alpha 79.2299
_cell_angle_beta  73.2119
_cell_angle_gamma 61.6164
_cell_volume      4062.36

_symmetry_cell_setting          triclinic
_symmetry_space_group_name_Hall 'P 1'
_symmetry_space_group_name_H-M  'P 1'
_symmetry_Int_Tables_number     1

_symmetry_equiv_pos_as_xyz 'x,y,z'

loop_
_atom_site_label
_atom_site_type_symbol
_atom_site_fract_x
_atom_site_fract_y
_atom_site_fract_z
_atom_site_charge
Zn       Zn     0.269780000000     0.085020000000     0.954880000000     0.486519   
Zn       Zn     0.309680000000     0.414980000000     0.545120000000     0.486519   
Zn       Zn     0.730220000000     0.914980000000     0.045120000000     0.486519   
Zn       Zn     0.690320000000     0.585020000000     0.454880000000     0.486519   
Zn       Zn     0.500000000000     0.000000000000     0.000000000000     0.486519   
Zn       Zn     0.500000000000     0.500000000000     0.500000000000     0.486519   
Si       Si     0.647020000000     0.447780000000     0.834800000000     0.790534   
Si       Si     0.929600000000     0.052220000000     0.665200000000     0.790534   
Si       Si     0.352980000000     0.552220000000     0.165200000000     0.790534   
Si       Si     0.070400000000     0.947780000000     0.334800000000     0.790534   
H        H      0.262600000000     0.170200000000     0.864200000000     0.050768   
H        H      0.470500000000     0.830500000000     0.827100000000     0.050768   
H        H      0.554500000000     0.667900000000     0.788900000000     0.050768   
H        H      0.593500000000     0.529000000000     0.947800000000     0.050768   
H        H      0.515400000000     0.693300000000     0.985300000000     0.050768   
H        H      0.552100000000     0.156000000000     0.883000000000     0.050768   
H        H      0.414900000000     0.507700000000     0.910500000000     0.050768   
H        H      0.300200000000     0.425800000000     0.946600000000     0.050768   
H        H      0.804600000000     0.453700000000     0.719300000000     0.050768   
H        H      0.789000000000     0.490600000000     0.622800000000     0.050768   
H        H      0.468700000000     0.527400000000     0.673400000000     0.050768   
H        H      0.485700000000     0.487800000000     0.770000000000     0.050768   
H        H      0.770300000000     0.252400000000     0.900200000000     0.050768   
H        H      0.947900000000     0.158800000000     0.921000000000     0.050768   
H        H      0.037100000000     0.374300000000     0.816900000000     0.050768   
H        H      0.857900000000     0.464600000000     0.797800000000     0.050768   
H        H      0.668200000000     0.236900000000     0.843100000000     0.050768   
H        H      0.297000000000     0.329800000000     0.635800000000     0.050768   
H        H      0.128100000000     0.669500000000     0.672900000000     0.050768   
H        H      0.011300000000     0.832100000000     0.711100000000     0.050768   
H        H      0.070300000000     0.971000000000     0.552200000000     0.050768   
H        H      0.194000000000     0.806700000000     0.514700000000     0.050768   
H        H      0.591100000000     0.344000000000     0.617000000000     0.050768   
H        H      0.833100000000     0.992300000000     0.589500000000     0.050768   
H        H      0.672600000000     0.074200000000     0.553400000000     0.050768   
H        H      0.977600000000     0.046300000000     0.780700000000     0.050768   
H        H      0.902400000000     0.009400000000     0.877200000000     0.050768   
H        H      0.669500000000     0.972600000000     0.826600000000     0.050768   
H        H      0.743500000000     0.012200000000     0.730000000000     0.050768   
H        H      0.922900000000     0.247600000000     0.599800000000     0.050768   
H        H      0.027700000000     0.341200000000     0.579000000000     0.050768   
H        H      0.228300000000     0.125700000000     0.683100000000     0.050768   
H        H      0.120300000000     0.035400000000     0.702200000000     0.050768   
H        H      0.748200000000     0.263100000000     0.656900000000     0.050768   
H        H      0.737400000000     0.829800000000     0.135800000000     0.050768   
H        H      0.529500000000     0.169500000000     0.172900000000     0.050768   
H        H      0.445500000000     0.332100000000     0.211100000000     0.050768   
H        H      0.406500000000     0.471000000000     0.052200000000     0.050768   
H        H      0.484600000000     0.306700000000     0.014700000000     0.050768   
H        H      0.447900000000     0.844000000000     0.117000000000     0.050768   
H        H      0.585100000000     0.492300000000     0.089500000000     0.050768   
H        H      0.699800000000     0.574200000000     0.053400000000     0.050768   
H        H      0.195400000000     0.546300000000     0.280700000000     0.050768   
H        H      0.211000000000     0.509400000000     0.377200000000     0.050768   
H        H      0.531300000000     0.472600000000     0.326600000000     0.050768   
H        H      0.514300000000     0.512200000000     0.230000000000     0.050768   
H        H      0.229700000000     0.747600000000     0.099800000000     0.050768   
H        H      0.052100000000     0.841200000000     0.079000000000     0.050768   
H        H      0.962900000000     0.625700000000     0.183100000000     0.050768   
H        H      0.142100000000     0.535400000000     0.202200000000     0.050768   
H        H      0.331800000000     0.763100000000     0.156900000000     0.050768   
H        H      0.703000000000     0.670200000000     0.364200000000     0.050768   
H        H      0.871900000000     0.330500000000     0.327100000000     0.050768   
H        H      0.988700000000     0.167900000000     0.288900000000     0.050768   
H        H      0.929700000000     0.029000000000     0.447800000000     0.050768   
H        H      0.806000000000     0.193300000000     0.485300000000     0.050768   
H        H      0.408900000000     0.656000000000     0.383000000000     0.050768   
H        H      0.166900000000     0.007700000000     0.410500000000     0.050768   
H        H      0.327400000000     0.925800000000     0.446600000000     0.050768   
H        H      0.022400000000     0.953700000000     0.219300000000     0.050768   
H        H      0.097600000000     0.990600000000     0.122800000000     0.050768   
H        H      0.330500000000     0.027400000000     0.173400000000     0.050768   
H        H      0.256500000000     0.987800000000     0.270000000000     0.050768   
H        H      0.077100000000     0.752400000000     0.400200000000     0.050768   
H        H      0.972300000000     0.658800000000     0.421000000000     0.050768   
H        H      0.771700000000     0.874300000000     0.316900000000     0.050768   
H        H      0.879700000000     0.964600000000     0.297800000000     0.050768   
H        H      0.251800000000     0.736900000000     0.343100000000     0.050768   
C        C      0.437380000000     0.881500000000     0.934340000000     0.004041   
C        C      0.489290000000     0.776470000000     0.909550000000     0.004041   
C        C      0.497960000000     0.768830000000     0.851650000000     0.004041   
C        C      0.546530000000     0.671870000000     0.829270000000     0.004041   
C        C      0.583610000000     0.580670000000     0.863910000000     0.004041   
C        C      0.570300000000     0.590300000000     0.922500000000     0.004041   
C        C      0.523300000000     0.688500000000     0.945100000000     0.004041   
C        C      0.416830000000     0.281930000000     0.921210000000     0.004041   
C        C      0.524610000000     0.227700000000     0.888880000000     0.004041   
C        C      0.555730000000     0.381620000000     0.871520000000     0.004041   
C        C      0.443750000000     0.435950000000     0.904150000000     0.004041   
C        C      0.376400000000     0.386630000000     0.926770000000     0.004041   
C        C      0.342260000000     0.228870000000     0.947010000000     0.004041   
C        C      0.735900000000     0.468470000000     0.710330000000     0.004041   
C        C      0.726510000000     0.490690000000     0.652690000000     0.004041   
C        C      0.628350000000     0.512620000000     0.638280000000     0.004041   
C        C      0.537270000000     0.512120000000     0.682540000000     0.004041   
C        C      0.547640000000     0.488990000000     0.740130000000     0.004041   
C        C      0.646720000000     0.467550000000     0.754810000000     0.004041   
C        C      0.793130000000     0.368530000000     0.847010000000     0.004041   
C        C      0.009380000000     0.258540000000     0.870500000000     0.004041   
C        C      0.124720000000     0.199830000000     0.883130000000     0.004041   
C        C      0.824980000000     0.277540000000     0.883100000000     0.004041   
C        C      0.930500000000     0.220600000000     0.896000000000     0.004041   
C        C      0.982490000000     0.349180000000     0.834040000000     0.004041   
C        C      0.875410000000     0.402810000000     0.822770000000     0.004041   
C        C      0.616780000000     0.534570000000     0.576270000000     0.004041   
C        C      0.593590000000     0.276300000000     0.864720000000     0.004041   
C        C      0.253220000000     0.618500000000     0.565660000000     0.004041   
C        C      0.175310000000     0.723530000000     0.590450000000     0.004041   
C        C      0.118440000000     0.731170000000     0.648350000000     0.004041   
C        C      0.047670000000     0.828130000000     0.670730000000     0.004041   
C        C      0.028190000000     0.919330000000     0.636090000000     0.004041   
C        C      0.083100000000     0.909700000000     0.577500000000     0.004041   
C        C      0.156900000000     0.811500000000     0.554900000000     0.004041   
C        C      0.619970000000     0.218070000000     0.578790000000     0.004041   
C        C      0.641190000000     0.272300000000     0.611120000000     0.004041   
C        C      0.808870000000     0.118380000000     0.628480000000     0.004041   
C        C      0.783850000000     0.064050000000     0.595850000000     0.004041   
C        C      0.689800000000     0.113370000000     0.573230000000     0.004041   
C        C      0.518140000000     0.271130000000     0.552990000000     0.004041   
C        C      0.914700000000     0.031530000000     0.789670000000     0.004041   
C        C      0.869890000000     0.009310000000     0.847310000000     0.004041   
C        C      0.779250000000     0.987380000000     0.861720000000     0.004041   
C        C      0.731930000000     0.987880000000     0.817460000000     0.004041   
C        C      0.776760000000     0.011010000000     0.759870000000     0.004041   
C        C      0.869080000000     0.032450000000     0.745190000000     0.004041   
C        C      0.008670000000     0.131470000000     0.652990000000     0.004041   
C        C      0.138420000000     0.241460000000     0.629500000000     0.004041   
C        C      0.207680000000     0.300170000000     0.616870000000     0.004041   
C        C      0.985620000000     0.222460000000     0.616900000000     0.004041   
C        C      0.047100000000     0.279400000000     0.604000000000     0.004041   
C        C      0.165710000000     0.150820000000     0.665960000000     0.004041   
C        C      0.100990000000     0.097190000000     0.677230000000     0.004041   
C        C      0.727620000000     0.965430000000     0.923730000000     0.004041   
C        C      0.734610000000     0.223700000000     0.635280000000     0.004041   
C        C      0.562620000000     0.118500000000     0.065660000000     0.004041   
C        C      0.510710000000     0.223530000000     0.090450000000     0.004041   
C        C      0.502040000000     0.231170000000     0.148350000000     0.004041   
C        C      0.453470000000     0.328130000000     0.170730000000     0.004041   
C        C      0.416390000000     0.419330000000     0.136090000000     0.004041   
C        C      0.429700000000     0.409700000000     0.077500000000     0.004041   
C        C      0.476700000000     0.311500000000     0.054900000000     0.004041   
C        C      0.583170000000     0.718070000000     0.078790000000     0.004041   
C        C      0.475390000000     0.772300000000     0.111120000000     0.004041   
C        C      0.444270000000     0.618380000000     0.128480000000     0.004041   
C        C      0.556250000000     0.564050000000     0.095850000000     0.004041   
C        C      0.623600000000     0.613370000000     0.073230000000     0.004041   
C        C      0.657740000000     0.771130000000     0.052990000000     0.004041   
C        C      0.264100000000     0.531530000000     0.289670000000     0.004041   
C        C      0.273490000000     0.509310000000     0.347310000000     0.004041   
C        C      0.371650000000     0.487380000000     0.361720000000     0.004041   
C        C      0.462730000000     0.487880000000     0.317460000000     0.004041   
C        C      0.452360000000     0.511010000000     0.259870000000     0.004041   
C        C      0.353280000000     0.532450000000     0.245190000000     0.004041   
C        C      0.206870000000     0.631470000000     0.152990000000     0.004041   
C        C      0.990620000000     0.741460000000     0.129500000000     0.004041   
C        C      0.875280000000     0.800170000000     0.116870000000     0.004041   
C        C      0.175020000000     0.722460000000     0.116900000000     0.004041   
C        C      0.069500000000     0.779400000000     0.104000000000     0.004041   
C        C      0.017510000000     0.650820000000     0.165960000000     0.004041   
C        C      0.124590000000     0.597190000000     0.177230000000     0.004041   
C        C      0.383220000000     0.465430000000     0.423730000000     0.004041   
C        C      0.406410000000     0.723700000000     0.135280000000     0.004041   
C        C      0.746780000000     0.381500000000     0.434340000000     0.004041   
C        C      0.824690000000     0.276470000000     0.409550000000     0.004041   
C        C      0.881560000000     0.268830000000     0.351650000000     0.004041   
C        C      0.952330000000     0.171870000000     0.329270000000     0.004041   
C        C      0.971810000000     0.080670000000     0.363910000000     0.004041   
C        C      0.916900000000     0.090300000000     0.422500000000     0.004041   
C        C      0.843100000000     0.188500000000     0.445100000000     0.004041   
C        C      0.380030000000     0.781930000000     0.421210000000     0.004041   
C        C      0.358810000000     0.727700000000     0.388880000000     0.004041   
C        C      0.191130000000     0.881620000000     0.371520000000     0.004041   
C        C      0.216150000000     0.935950000000     0.404150000000     0.004041   
C        C      0.310200000000     0.886630000000     0.426770000000     0.004041   
C        C      0.481860000000     0.728870000000     0.447010000000     0.004041   
C        C      0.085300000000     0.968470000000     0.210330000000     0.004041   
C        C      0.130110000000     0.990690000000     0.152690000000     0.004041   
C        C      0.220750000000     0.012620000000     0.138280000000     0.004041   
C        C      0.268070000000     0.012120000000     0.182540000000     0.004041   
C        C      0.223240000000     0.988990000000     0.240130000000     0.004041   
C        C      0.130920000000     0.967550000000     0.254810000000     0.004041   
C        C      0.991330000000     0.868530000000     0.347010000000     0.004041   
C        C      0.861580000000     0.758540000000     0.370500000000     0.004041   
C        C      0.792320000000     0.699830000000     0.383130000000     0.004041   
C        C      0.014380000000     0.777540000000     0.383100000000     0.004041   
C        C      0.952900000000     0.720600000000     0.396000000000     0.004041   
C        C      0.834290000000     0.849180000000     0.334040000000     0.004041   
C        C      0.899010000000     0.902810000000     0.322770000000     0.004041   
C        C      0.272380000000     0.034570000000     0.076270000000     0.004041   
C        C      0.265390000000     0.776300000000     0.364720000000     0.004041   
O        O      0.358570000000     0.954750000000     0.913010000000    -0.312065   
O        O      0.473280000000     0.888160000000     0.974880000000    -0.312065   
O        O      0.694170000000     0.548600000000     0.538060000000    -0.312065   
O        O      0.531090000000     0.536560000000     0.567220000000    -0.312065   
O        O      0.242070000000     0.277900000000     0.969960000000    -0.312065   
O        O      0.389970000000     0.127760000000     0.942320000000    -0.312065   
O        O      0.127700000000     0.153450000000     0.932350000000    -0.312065   
O        O      0.205100000000     0.208030000000     0.850770000000    -0.312065   
O        O      0.226330000000     0.545250000000     0.586990000000    -0.312065   
O        O      0.336320000000     0.611840000000     0.525120000000    -0.312065   
O        O      0.780830000000     0.951400000000     0.961940000000    -0.312065   
O        O      0.634870000000     0.963440000000     0.932780000000    -0.312065   
O        O      0.489930000000     0.222100000000     0.530040000000    -0.312065   
O        O      0.460050000000     0.372240000000     0.557680000000    -0.312065   
O        O      0.213500000000     0.346550000000     0.567650000000    -0.312065   
O        O      0.263900000000     0.291970000000     0.649230000000    -0.312065   
O        O      0.641430000000     0.045250000000     0.086990000000    -0.312065   
O        O      0.526720000000     0.111840000000     0.025120000000    -0.312065   
O        O      0.305830000000     0.451400000000     0.461940000000    -0.312065   
O        O      0.468910000000     0.463440000000     0.432780000000    -0.312065   
O        O      0.757930000000     0.722100000000     0.030040000000    -0.312065   
O        O      0.610030000000     0.872240000000     0.057680000000    -0.312065   
O        O      0.872300000000     0.846550000000     0.067650000000    -0.312065   
O        O      0.794900000000     0.791970000000     0.149230000000    -0.312065   
O        O      0.773670000000     0.454750000000     0.413010000000    -0.312065   
O        O      0.663680000000     0.388160000000     0.474880000000    -0.312065   
O        O      0.219170000000     0.048600000000     0.038060000000    -0.312065   
O        O      0.365130000000     0.036560000000     0.067220000000    -0.312065   
O        O      0.510070000000     0.777900000000     0.469960000000    -0.312065   
O        O      0.539950000000     0.627760000000     0.442320000000    -0.312065   
O        O      0.786500000000     0.653450000000     0.432350000000    -0.312065   
O        O      0.736100000000     0.708030000000     0.350770000000    -0.312065   


