data_ODUNEH_original

_audit_creation_method RASPA-1.0
_audit_creation_date 2022-1-31
_audit_author_name 'Felipe Lopes de Oliveira <felipe.lopes.oliveira@ibm.com>'

_cell_length_a    12.829
_cell_length_b    18.528
_cell_length_c    21.3236
_cell_angle_alpha 84.0975
_cell_angle_beta  72.4937
_cell_angle_gamma 70.0099
_cell_volume      4542.55

_symmetry_cell_setting          triclinic
_symmetry_space_group_name_Hall 'P 1'
_symmetry_space_group_name_H-M  'P 1'
_symmetry_Int_Tables_number     1

_symmetry_equiv_pos_as_xyz 'x,y,z'

loop_
_atom_site_label
_atom_site_type_symbol
_atom_site_fract_x
_atom_site_fract_y
_atom_site_fract_z
_atom_site_charge
Zn       Zn     0.020200000000     0.093770000000     0.808180000000     0.455595   
Zn       Zn     0.255460000000     0.103600000000     0.697060000000     0.455595   
Zn       Zn     0.171620000000     0.406230000000     0.808180000000     0.455595   
Zn       Zn     0.047480000000     0.396400000000     0.697060000000     0.455595   
Zn       Zn     0.979800000000     0.906230000000     0.191820000000     0.455595   
Zn       Zn     0.744540000000     0.896400000000     0.302940000000     0.455595   
Zn       Zn     0.828380000000     0.593770000000     0.191820000000     0.455595   
Zn       Zn     0.952520000000     0.603600000000     0.302940000000     0.455595   
Zn       Zn     0.902790000000     0.750000000000     0.194420000000     0.455595   
Zn       Zn     0.097210000000     0.250000000000     0.805580000000     0.455595   
H        H      0.215000000000     0.987700000000     0.945400000000     0.0556959  
H        H      0.328900000000     0.924500000000     0.013800000000     0.0556959  
H        H      0.611600000000     0.877300000000     0.855800000000     0.0556959  
H        H      0.501900000000     0.947400000000     0.789200000000     0.0556959  
H        H      0.495000000000     0.938800000000     0.056200000000     0.0556959  
H        H      0.621200000000     0.881400000000     0.115000000000     0.0556959  
H        H      0.758500000000     0.693900000000     0.003400000000     0.0556959  
H        H      0.646700000000     0.753800000000     0.933800000000     0.0556959  
H        H      0.006000000000     0.920100000000     0.693800000000     0.0556959  
H        H      0.985700000000     0.841700000000     0.622000000000     0.0556959  
H        H      0.181900000000     0.921900000000     0.474200000000     0.0556959  
H        H      0.226500000000     0.980500000000     0.546200000000     0.0556959  
H        H      0.079600000000     0.727500000000     0.554000000000     0.0556959  
H        H      0.059100000000     0.648600000000     0.481200000000     0.0556959  
H        H      0.029000000000     0.822000000000     0.352800000000     0.0556959  
H        H      0.044800000000     0.900200000000     0.430200000000     0.0556959  
H        H      0.839600000000     0.512300000000     0.945400000000     0.0556959  
H        H      0.657300000000     0.575500000000     0.013800000000     0.0556959  
H        H      0.532600000000     0.622700000000     0.855800000000     0.0556959  
H        H      0.708900000000     0.552600000000     0.789200000000     0.0556959  
H        H      0.448800000000     0.561200000000     0.056200000000     0.0556959  
H        H      0.263800000000     0.618600000000     0.115000000000     0.0556959  
H        H      0.238100000000     0.806100000000     0.003400000000     0.0556959  
H        H      0.419500000000     0.746200000000     0.933800000000     0.0556959  
H        H      0.300200000000     0.579900000000     0.693800000000     0.0556959  
H        H      0.392300000000     0.658300000000     0.622000000000     0.0556959  
H        H      0.343900000000     0.578100000000     0.474200000000     0.0556959  
H        H      0.227300000000     0.519500000000     0.546200000000     0.0556959  
H        H      0.366400000000     0.772500000000     0.554000000000     0.0556959  
H        H      0.459700000000     0.851400000000     0.481200000000     0.0556959  
H        H      0.618200000000     0.678000000000     0.352800000000     0.0556959  
H        H      0.525000000000     0.599800000000     0.430200000000     0.0556959  
H        H      0.785000000000     0.012300000000     0.054600000000     0.0556959  
H        H      0.671100000000     0.075500000000     0.986200000000     0.0556959  
H        H      0.388400000000     0.122700000000     0.144200000000     0.0556959  
H        H      0.498100000000     0.052600000000     0.210800000000     0.0556959  
H        H      0.505000000000     0.061200000000     0.943800000000     0.0556959  
H        H      0.378800000000     0.118600000000     0.885000000000     0.0556959  
H        H      0.241500000000     0.306100000000     0.996600000000     0.0556959  
H        H      0.353300000000     0.246200000000     0.066200000000     0.0556959  
H        H      0.994000000000     0.079900000000     0.306200000000     0.0556959  
H        H      0.014300000000     0.158300000000     0.378000000000     0.0556959  
H        H      0.818100000000     0.078100000000     0.525800000000     0.0556959  
H        H      0.773500000000     0.019500000000     0.453800000000     0.0556959  
H        H      0.920400000000     0.272500000000     0.446000000000     0.0556959  
H        H      0.940900000000     0.351400000000     0.518800000000     0.0556959  
H        H      0.971000000000     0.178000000000     0.647200000000     0.0556959  
H        H      0.955200000000     0.099800000000     0.569800000000     0.0556959  
H        H      0.160400000000     0.487700000000     0.054600000000     0.0556959  
H        H      0.342700000000     0.424500000000     0.986200000000     0.0556959  
H        H      0.467400000000     0.377300000000     0.144200000000     0.0556959  
H        H      0.291100000000     0.447400000000     0.210800000000     0.0556959  
H        H      0.551200000000     0.438800000000     0.943800000000     0.0556959  
H        H      0.736200000000     0.381400000000     0.885000000000     0.0556959  
H        H      0.761900000000     0.193900000000     0.996600000000     0.0556959  
H        H      0.580500000000     0.253800000000     0.066200000000     0.0556959  
H        H      0.699800000000     0.420100000000     0.306200000000     0.0556959  
H        H      0.607700000000     0.341700000000     0.378000000000     0.0556959  
H        H      0.656100000000     0.421900000000     0.525800000000     0.0556959  
H        H      0.772700000000     0.480500000000     0.453800000000     0.0556959  
H        H      0.633600000000     0.227500000000     0.446000000000     0.0556959  
H        H      0.540300000000     0.148600000000     0.518800000000     0.0556959  
H        H      0.381800000000     0.322000000000     0.647200000000     0.0556959  
H        H      0.475000000000     0.400200000000     0.569800000000     0.0556959  
C        C      0.273800000000     0.022700000000     0.818200000000     0.0199772  
C        C      0.345540000000     0.976400000000     0.860720000000     0.0199772  
C        C      0.294800000000     0.967200000000     0.928000000000     0.0199772  
C        C      0.362680000000     0.927700000000     0.968840000000     0.0199772  
C        C      0.482200000000     0.892900000000     0.942000000000     0.0199772  
C        C      0.532400000000     0.900700000000     0.873800000000     0.0199772  
C        C      0.467150000000     0.942000000000     0.833700000000     0.0199772  
C        C      0.557520000000     0.853800000000     0.985360000000     0.0199772  
C        C      0.550020000000     0.890800000000     0.043560000000     0.0199772  
C        C      0.623070000000     0.855400000000     0.079460000000     0.0199772  
C        C      0.702970000000     0.780000000000     0.065460000000     0.0199772  
C        C      0.707920000000     0.743800000000     0.012560000000     0.0199772  
C        C      0.638930000000     0.779400000000     0.971140000000     0.0199772  
C        C      0.778240000000     0.743500000000     0.109920000000     0.0199772  
C        C      0.136700000000     0.010400000000     0.670200000000     0.0199772  
C        C      0.123260000000     0.961300000000     0.626680000000     0.0199772  
C        C      0.047330000000     0.918200000000     0.649540000000     0.0199772  
C        C      0.033220000000     0.871600000000     0.605360000000     0.0199772  
C        C      0.087560000000     0.869500000000     0.539080000000     0.0199772  
C        C      0.150980000000     0.915800000000     0.519040000000     0.0199772  
C        C      0.172180000000     0.955600000000     0.563440000000     0.0199772  
C        C      0.065790000000     0.823500000000     0.499220000000     0.0199772  
C        C      0.067910000000     0.747900000000     0.513980000000     0.0199772  
C        C      0.052740000000     0.699600000000     0.470520000000     0.0199772  
C        C      0.029250000000     0.730200000000     0.414700000000     0.0199772  
C        C      0.034300000000     0.803300000000     0.394200000000     0.0199772  
C        C      0.048400000000     0.849700000000     0.441400000000     0.0199772  
C        C      0.013130000000     0.682600000000     0.368540000000     0.0199772  
C        C      0.908000000000     0.477300000000     0.818200000000     0.0199772  
C        C      0.793740000000     0.523600000000     0.860720000000     0.0199772  
C        C      0.777200000000     0.532800000000     0.928000000000     0.0199772  
C        C      0.668480000000     0.572300000000     0.968840000000     0.0199772  
C        C      0.575800000000     0.607100000000     0.942000000000     0.0199772  
C        C      0.593800000000     0.599300000000     0.873800000000     0.0199772  
C        C      0.699150000000     0.558000000000     0.833700000000     0.0199772  
C        C      0.457120000000     0.646200000000     0.985360000000     0.0199772  
C        C      0.406420000000     0.609200000000     0.043560000000     0.0199772  
C        C      0.297470000000     0.644600000000     0.079460000000     0.0199772  
C        C      0.231570000000     0.720000000000     0.065460000000     0.0199772  
C        C      0.279520000000     0.756200000000     0.012560000000     0.0199772  
C        C      0.389930000000     0.720600000000     0.971140000000     0.0199772  
C        C      0.111840000000     0.756500000000     0.109920000000     0.0199772  
C        C      0.193100000000     0.489600000000     0.670200000000     0.0199772  
C        C      0.250060000000     0.538700000000     0.626680000000     0.0199772  
C        C      0.303130000000     0.581800000000     0.649540000000     0.0199772  
C        C      0.361420000000     0.628400000000     0.605360000000     0.0199772  
C        C      0.373360000000     0.630500000000     0.539080000000     0.0199772  
C        C      0.329980000000     0.584200000000     0.519040000000     0.0199772  
C        C      0.264380000000     0.544400000000     0.563440000000     0.0199772  
C        C      0.434990000000     0.676500000000     0.499220000000     0.0199772  
C        C      0.418110000000     0.752100000000     0.513980000000     0.0199772  
C        C      0.476740000000     0.800400000000     0.470520000000     0.0199772  
C        C      0.556050000000     0.769800000000     0.414700000000     0.0199772  
C        C      0.571500000000     0.696700000000     0.394200000000     0.0199772  
C        C      0.510200000000     0.650300000000     0.441400000000     0.0199772  
C        C      0.618330000000     0.817400000000     0.368540000000     0.0199772  
C        C      0.726200000000     0.977300000000     0.181800000000     0.0199772  
C        C      0.654460000000     0.023600000000     0.139280000000     0.0199772  
C        C      0.705200000000     0.032800000000     0.072000000000     0.0199772  
C        C      0.637320000000     0.072300000000     0.031160000000     0.0199772  
C        C      0.517800000000     0.107100000000     0.058000000000     0.0199772  
C        C      0.467600000000     0.099300000000     0.126200000000     0.0199772  
C        C      0.532850000000     0.058000000000     0.166300000000     0.0199772  
C        C      0.442480000000     0.146200000000     0.014640000000     0.0199772  
C        C      0.449980000000     0.109200000000     0.956440000000     0.0199772  
C        C      0.376930000000     0.144600000000     0.920540000000     0.0199772  
C        C      0.297030000000     0.220000000000     0.934540000000     0.0199772  
C        C      0.292080000000     0.256200000000     0.987440000000     0.0199772  
C        C      0.361070000000     0.220600000000     0.028860000000     0.0199772  
C        C      0.221760000000     0.256500000000     0.890080000000     0.0199772  
C        C      0.863300000000     0.989600000000     0.329800000000     0.0199772  
C        C      0.876740000000     0.038700000000     0.373320000000     0.0199772  
C        C      0.952670000000     0.081800000000     0.350460000000     0.0199772  
C        C      0.966780000000     0.128400000000     0.394640000000     0.0199772  
C        C      0.912440000000     0.130500000000     0.460920000000     0.0199772  
C        C      0.849020000000     0.084200000000     0.480960000000     0.0199772  
C        C      0.827820000000     0.044400000000     0.436560000000     0.0199772  
C        C      0.934210000000     0.176500000000     0.500780000000     0.0199772  
C        C      0.932090000000     0.252100000000     0.486020000000     0.0199772  
C        C      0.947260000000     0.300400000000     0.529480000000     0.0199772  
C        C      0.970750000000     0.269800000000     0.585300000000     0.0199772  
C        C      0.965700000000     0.196700000000     0.605800000000     0.0199772  
C        C      0.951600000000     0.150300000000     0.558600000000     0.0199772  
C        C      0.986870000000     0.317400000000     0.631460000000     0.0199772  
C        C      0.092000000000     0.522700000000     0.181800000000     0.0199772  
C        C      0.206260000000     0.476400000000     0.139280000000     0.0199772  
C        C      0.222800000000     0.467200000000     0.072000000000     0.0199772  
C        C      0.331520000000     0.427700000000     0.031160000000     0.0199772  
C        C      0.424200000000     0.392900000000     0.058000000000     0.0199772  
C        C      0.406200000000     0.400700000000     0.126200000000     0.0199772  
C        C      0.300850000000     0.442000000000     0.166300000000     0.0199772  
C        C      0.542880000000     0.353800000000     0.014640000000     0.0199772  
C        C      0.593580000000     0.390800000000     0.956440000000     0.0199772  
C        C      0.702530000000     0.355400000000     0.920540000000     0.0199772  
C        C      0.768430000000     0.280000000000     0.934540000000     0.0199772  
C        C      0.720480000000     0.243800000000     0.987440000000     0.0199772  
C        C      0.610070000000     0.279400000000     0.028860000000     0.0199772  
C        C      0.888160000000     0.243500000000     0.890080000000     0.0199772  
C        C      0.806900000000     0.510400000000     0.329800000000     0.0199772  
C        C      0.749940000000     0.461300000000     0.373320000000     0.0199772  
C        C      0.696870000000     0.418200000000     0.350460000000     0.0199772  
C        C      0.638580000000     0.371600000000     0.394640000000     0.0199772  
C        C      0.626640000000     0.369500000000     0.460920000000     0.0199772  
C        C      0.670020000000     0.415800000000     0.480960000000     0.0199772  
C        C      0.735620000000     0.455600000000     0.436560000000     0.0199772  
C        C      0.565010000000     0.323500000000     0.500780000000     0.0199772  
C        C      0.581890000000     0.247900000000     0.486020000000     0.0199772  
C        C      0.523260000000     0.199600000000     0.529480000000     0.0199772  
C        C      0.443950000000     0.230200000000     0.585300000000     0.0199772  
C        C      0.428500000000     0.303300000000     0.605800000000     0.0199772  
C        C      0.489800000000     0.349700000000     0.558600000000     0.0199772  
C        C      0.381670000000     0.182600000000     0.631460000000     0.0199772  
O        O      0.163560000000     0.043000000000     0.843680000000    -0.28772    
O        O      0.326420000000     0.036770000000     0.761160000000    -0.28772    
O        O      0.079060000000     0.015500000000     0.729480000000    -0.28772    
O        O      0.213560000000     0.040780000000     0.645080000000    -0.28772    
O        O      0.793700000000     0.790680000000     0.143000000000    -0.28772    
O        O      0.820250000000     0.673230000000     0.110900000000    -0.28772    
O        O      0.008310000000     0.620300000000     0.381980000000    -0.28772    
O        O      0.007440000000     0.706400000000     0.312920000000    -0.28772    
O        O      0.849360000000     0.668750000000     0.249080000000    -0.28772    
O        O      0.992760000000     0.457000000000     0.843680000000    -0.28772    
O        O      0.912420000000     0.463230000000     0.761160000000    -0.28772    
O        O      0.191460000000     0.484500000000     0.729480000000    -0.28772    
O        O      0.141360000000     0.459220000000     0.645080000000    -0.28772    
O        O      0.063300000000     0.709320000000     0.143000000000    -0.28772    
O        O      0.068850000000     0.826770000000     0.110900000000    -0.28772    
O        O      0.609710000000     0.879700000000     0.381980000000    -0.28772    
O        O      0.679640000000     0.793600000000     0.312920000000    -0.28772    
O        O      0.901560000000     0.831250000000     0.249080000000    -0.28772    
O        O      0.836440000000     0.957000000000     0.156320000000    -0.28772    
O        O      0.673580000000     0.963230000000     0.238840000000    -0.28772    
O        O      0.920940000000     0.984500000000     0.270520000000    -0.28772    
O        O      0.786440000000     0.959220000000     0.354920000000    -0.28772    
O        O      0.206300000000     0.209320000000     0.857000000000    -0.28772    
O        O      0.179750000000     0.326770000000     0.889100000000    -0.28772    
O        O      0.991690000000     0.379700000000     0.618020000000    -0.28772    
O        O      0.992560000000     0.293600000000     0.687080000000    -0.28772    
O        O      0.150640000000     0.331250000000     0.750920000000    -0.28772    
O        O      0.007240000000     0.543000000000     0.156320000000    -0.28772    
O        O      0.087580000000     0.536770000000     0.238840000000    -0.28772    
O        O      0.808540000000     0.515500000000     0.270520000000    -0.28772    
O        O      0.858640000000     0.540780000000     0.354920000000    -0.28772    
O        O      0.936700000000     0.290680000000     0.857000000000    -0.28772    
O        O      0.931150000000     0.173230000000     0.889100000000    -0.28772    
O        O      0.390290000000     0.120300000000     0.618020000000    -0.28772    
O        O      0.320360000000     0.206400000000     0.687080000000    -0.28772    
O        O      0.098440000000     0.168750000000     0.750920000000    -0.28772    


