data_OFERUN04_original

_audit_creation_method RASPA-1.0
_audit_creation_date 2022-1-31
_audit_author_name 'Felipe Lopes de Oliveira <felipe.lopes.oliveira@ibm.com>'

_cell_length_a    17.0544
_cell_length_b    17.0544
_cell_length_c    17.0544
_cell_angle_alpha 90
_cell_angle_beta  90
_cell_angle_gamma 90
_cell_volume      4960.32

_symmetry_cell_setting          triclinic
_symmetry_space_group_name_Hall 'P 1'
_symmetry_space_group_name_H-M  'P 1'
_symmetry_Int_Tables_number     1

_symmetry_equiv_pos_as_xyz 'x,y,z'

loop_
_atom_site_label
_atom_site_type_symbol
_atom_site_fract_x
_atom_site_fract_y
_atom_site_fract_z
_atom_site_charge
Zn       Zn     0.000000000000     0.500000000000     0.750000000000     0.325369   
Zn       Zn     0.000000000000     0.500000000000     0.250000000000     0.325369   
Zn       Zn     0.500000000000     0.000000000000     0.250000000000     0.325369   
Zn       Zn     0.500000000000     0.000000000000     0.750000000000     0.325369   
Zn       Zn     0.500000000000     0.750000000000     0.000000000000     0.325369   
Zn       Zn     0.500000000000     0.250000000000     0.000000000000     0.325369   
Zn       Zn     0.750000000000     0.500000000000     0.000000000000     0.325369   
Zn       Zn     0.250000000000     0.500000000000     0.000000000000     0.325369   
Zn       Zn     0.750000000000     0.000000000000     0.500000000000     0.325369   
Zn       Zn     0.250000000000     0.000000000000     0.500000000000     0.325369   
Zn       Zn     0.000000000000     0.750000000000     0.500000000000     0.325369   
Zn       Zn     0.000000000000     0.250000000000     0.500000000000     0.325369   
H        H      0.125400000000     0.362400000000     0.774900000000     0.156777   
H        H      0.125400000000     0.637600000000     0.225100000000     0.156777   
H        H      0.874600000000     0.637600000000     0.774900000000     0.156777   
H        H      0.874600000000     0.362400000000     0.225100000000     0.156777   
H        H      0.362400000000     0.874600000000     0.225100000000     0.156777   
H        H      0.637600000000     0.874600000000     0.774900000000     0.156777   
H        H      0.637600000000     0.125400000000     0.225100000000     0.156777   
H        H      0.362400000000     0.125400000000     0.774900000000     0.156777   
H        H      0.362400000000     0.774900000000     0.125400000000     0.156777   
H        H      0.637600000000     0.225100000000     0.125400000000     0.156777   
H        H      0.362400000000     0.225100000000     0.874600000000     0.156777   
H        H      0.637600000000     0.774900000000     0.874600000000     0.156777   
H        H      0.774900000000     0.637600000000     0.874600000000     0.156777   
H        H      0.774900000000     0.362400000000     0.125400000000     0.156777   
H        H      0.225100000000     0.362400000000     0.874600000000     0.156777   
H        H      0.225100000000     0.637600000000     0.125400000000     0.156777   
H        H      0.774900000000     0.125400000000     0.362400000000     0.156777   
H        H      0.225100000000     0.125400000000     0.637600000000     0.156777   
H        H      0.225100000000     0.874600000000     0.362400000000     0.156777   
H        H      0.774900000000     0.874600000000     0.637600000000     0.156777   
H        H      0.125400000000     0.774900000000     0.362400000000     0.156777   
H        H      0.125400000000     0.225100000000     0.637600000000     0.156777   
H        H      0.874600000000     0.774900000000     0.637600000000     0.156777   
H        H      0.874600000000     0.225100000000     0.362400000000     0.156777   
H        H      0.625400000000     0.862400000000     0.274900000000     0.156777   
H        H      0.625400000000     0.137600000000     0.725100000000     0.156777   
H        H      0.374600000000     0.137600000000     0.274900000000     0.156777   
H        H      0.374600000000     0.862400000000     0.725100000000     0.156777   
H        H      0.862400000000     0.374600000000     0.725100000000     0.156777   
H        H      0.137600000000     0.374600000000     0.274900000000     0.156777   
H        H      0.137600000000     0.625400000000     0.725100000000     0.156777   
H        H      0.862400000000     0.625400000000     0.274900000000     0.156777   
H        H      0.862400000000     0.274900000000     0.625400000000     0.156777   
H        H      0.137600000000     0.725100000000     0.625400000000     0.156777   
H        H      0.862400000000     0.725100000000     0.374600000000     0.156777   
H        H      0.137600000000     0.274900000000     0.374600000000     0.156777   
H        H      0.274900000000     0.137600000000     0.374600000000     0.156777   
H        H      0.274900000000     0.862400000000     0.625400000000     0.156777   
H        H      0.725100000000     0.862400000000     0.374600000000     0.156777   
H        H      0.725100000000     0.137600000000     0.625400000000     0.156777   
H        H      0.274900000000     0.625400000000     0.862400000000     0.156777   
H        H      0.725100000000     0.625400000000     0.137600000000     0.156777   
H        H      0.725100000000     0.374600000000     0.862400000000     0.156777   
H        H      0.274900000000     0.374600000000     0.137600000000     0.156777   
H        H      0.625400000000     0.274900000000     0.862400000000     0.156777   
H        H      0.625400000000     0.725100000000     0.137600000000     0.156777   
H        H      0.374600000000     0.274900000000     0.137600000000     0.156777   
H        H      0.374600000000     0.725100000000     0.862400000000     0.156777   
H        H      0.037400000000     0.589000000000     0.898700000000     0.156777   
H        H      0.037400000000     0.411000000000     0.101300000000     0.156777   
H        H      0.962600000000     0.411000000000     0.898700000000     0.156777   
H        H      0.962600000000     0.589000000000     0.101300000000     0.156777   
H        H      0.589000000000     0.962600000000     0.101300000000     0.156777   
H        H      0.411000000000     0.962600000000     0.898700000000     0.156777   
H        H      0.411000000000     0.037400000000     0.101300000000     0.156777   
H        H      0.589000000000     0.037400000000     0.898700000000     0.156777   
H        H      0.589000000000     0.898700000000     0.037400000000     0.156777   
H        H      0.411000000000     0.101300000000     0.037400000000     0.156777   
H        H      0.589000000000     0.101300000000     0.962600000000     0.156777   
H        H      0.411000000000     0.898700000000     0.962600000000     0.156777   
H        H      0.898700000000     0.411000000000     0.962600000000     0.156777   
H        H      0.898700000000     0.589000000000     0.037400000000     0.156777   
H        H      0.101300000000     0.589000000000     0.962600000000     0.156777   
H        H      0.101300000000     0.411000000000     0.037400000000     0.156777   
H        H      0.898700000000     0.037400000000     0.589000000000     0.156777   
H        H      0.101300000000     0.037400000000     0.411000000000     0.156777   
H        H      0.101300000000     0.962600000000     0.589000000000     0.156777   
H        H      0.898700000000     0.962600000000     0.411000000000     0.156777   
H        H      0.037400000000     0.898700000000     0.589000000000     0.156777   
H        H      0.037400000000     0.101300000000     0.411000000000     0.156777   
H        H      0.962600000000     0.898700000000     0.411000000000     0.156777   
H        H      0.962600000000     0.101300000000     0.589000000000     0.156777   
H        H      0.537400000000     0.089000000000     0.398700000000     0.156777   
H        H      0.537400000000     0.911000000000     0.601300000000     0.156777   
H        H      0.462600000000     0.911000000000     0.398700000000     0.156777   
H        H      0.462600000000     0.089000000000     0.601300000000     0.156777   
H        H      0.089000000000     0.462600000000     0.601300000000     0.156777   
H        H      0.911000000000     0.462600000000     0.398700000000     0.156777   
H        H      0.911000000000     0.537400000000     0.601300000000     0.156777   
H        H      0.089000000000     0.537400000000     0.398700000000     0.156777   
H        H      0.089000000000     0.398700000000     0.537400000000     0.156777   
H        H      0.911000000000     0.601300000000     0.537400000000     0.156777   
H        H      0.089000000000     0.601300000000     0.462600000000     0.156777   
H        H      0.911000000000     0.398700000000     0.462600000000     0.156777   
H        H      0.398700000000     0.911000000000     0.462600000000     0.156777   
H        H      0.398700000000     0.089000000000     0.537400000000     0.156777   
H        H      0.601300000000     0.089000000000     0.462600000000     0.156777   
H        H      0.601300000000     0.911000000000     0.537400000000     0.156777   
H        H      0.398700000000     0.537400000000     0.089000000000     0.156777   
H        H      0.601300000000     0.537400000000     0.911000000000     0.156777   
H        H      0.601300000000     0.462600000000     0.089000000000     0.156777   
H        H      0.398700000000     0.462600000000     0.911000000000     0.156777   
H        H      0.537400000000     0.398700000000     0.089000000000     0.156777   
H        H      0.537400000000     0.601300000000     0.911000000000     0.156777   
H        H      0.462600000000     0.398700000000     0.911000000000     0.156777   
H        H      0.462600000000     0.601300000000     0.089000000000     0.156777   
H        H      0.119200000000     0.627500000000     0.880800000000     0.156777   
H        H      0.119200000000     0.372500000000     0.119200000000     0.156777   
H        H      0.880800000000     0.372500000000     0.880800000000     0.156777   
H        H      0.880800000000     0.627500000000     0.119200000000     0.156777   
H        H      0.627500000000     0.880800000000     0.119200000000     0.156777   
H        H      0.372500000000     0.880800000000     0.880800000000     0.156777   
H        H      0.372500000000     0.119200000000     0.119200000000     0.156777   
H        H      0.627500000000     0.119200000000     0.880800000000     0.156777   
H        H      0.880800000000     0.119200000000     0.627500000000     0.156777   
H        H      0.119200000000     0.119200000000     0.372500000000     0.156777   
H        H      0.119200000000     0.880800000000     0.627500000000     0.156777   
H        H      0.880800000000     0.880800000000     0.372500000000     0.156777   
H        H      0.619200000000     0.127500000000     0.380800000000     0.156777   
H        H      0.619200000000     0.872500000000     0.619200000000     0.156777   
H        H      0.380800000000     0.872500000000     0.380800000000     0.156777   
H        H      0.380800000000     0.127500000000     0.619200000000     0.156777   
H        H      0.127500000000     0.380800000000     0.619200000000     0.156777   
H        H      0.872500000000     0.380800000000     0.380800000000     0.156777   
H        H      0.872500000000     0.619200000000     0.619200000000     0.156777   
H        H      0.127500000000     0.619200000000     0.380800000000     0.156777   
H        H      0.380800000000     0.619200000000     0.127500000000     0.156777   
H        H      0.619200000000     0.619200000000     0.872500000000     0.156777   
H        H      0.619200000000     0.380800000000     0.127500000000     0.156777   
H        H      0.380800000000     0.380800000000     0.872500000000     0.156777   
C        C      0.133700000000     0.402000000000     0.811400000000    -0.131601   
C        C      0.133700000000     0.598000000000     0.188600000000    -0.131601   
C        C      0.866300000000     0.598000000000     0.811400000000    -0.131601   
C        C      0.866300000000     0.402000000000     0.188600000000    -0.131601   
C        C      0.402000000000     0.866300000000     0.188600000000    -0.131601   
C        C      0.598000000000     0.866300000000     0.811400000000    -0.131601   
C        C      0.598000000000     0.133700000000     0.188600000000    -0.131601   
C        C      0.402000000000     0.133700000000     0.811400000000    -0.131601   
C        C      0.402000000000     0.811400000000     0.133700000000    -0.131601   
C        C      0.598000000000     0.188600000000     0.133700000000    -0.131601   
C        C      0.402000000000     0.188600000000     0.866300000000    -0.131601   
C        C      0.598000000000     0.811400000000     0.866300000000    -0.131601   
C        C      0.811400000000     0.598000000000     0.866300000000    -0.131601   
C        C      0.811400000000     0.402000000000     0.133700000000    -0.131601   
C        C      0.188600000000     0.402000000000     0.866300000000    -0.131601   
C        C      0.188600000000     0.598000000000     0.133700000000    -0.131601   
C        C      0.811400000000     0.133700000000     0.402000000000    -0.131601   
C        C      0.188600000000     0.133700000000     0.598000000000    -0.131601   
C        C      0.188600000000     0.866300000000     0.402000000000    -0.131601   
C        C      0.811400000000     0.866300000000     0.598000000000    -0.131601   
C        C      0.133700000000     0.811400000000     0.402000000000    -0.131601   
C        C      0.133700000000     0.188600000000     0.598000000000    -0.131601   
C        C      0.866300000000     0.811400000000     0.598000000000    -0.131601   
C        C      0.866300000000     0.188600000000     0.402000000000    -0.131601   
C        C      0.633700000000     0.902000000000     0.311400000000    -0.131601   
C        C      0.633700000000     0.098000000000     0.688600000000    -0.131601   
C        C      0.366300000000     0.098000000000     0.311400000000    -0.131601   
C        C      0.366300000000     0.902000000000     0.688600000000    -0.131601   
C        C      0.902000000000     0.366300000000     0.688600000000    -0.131601   
C        C      0.098000000000     0.366300000000     0.311400000000    -0.131601   
C        C      0.098000000000     0.633700000000     0.688600000000    -0.131601   
C        C      0.902000000000     0.633700000000     0.311400000000    -0.131601   
C        C      0.902000000000     0.311400000000     0.633700000000    -0.131601   
C        C      0.098000000000     0.688600000000     0.633700000000    -0.131601   
C        C      0.902000000000     0.688600000000     0.366300000000    -0.131601   
C        C      0.098000000000     0.311400000000     0.366300000000    -0.131601   
C        C      0.311400000000     0.098000000000     0.366300000000    -0.131601   
C        C      0.311400000000     0.902000000000     0.633700000000    -0.131601   
C        C      0.688600000000     0.902000000000     0.366300000000    -0.131601   
C        C      0.688600000000     0.098000000000     0.633700000000    -0.131601   
C        C      0.311400000000     0.633700000000     0.902000000000    -0.131601   
C        C      0.688600000000     0.633700000000     0.098000000000    -0.131601   
C        C      0.688600000000     0.366300000000     0.902000000000    -0.131601   
C        C      0.311400000000     0.366300000000     0.098000000000    -0.131601   
C        C      0.633700000000     0.311400000000     0.902000000000    -0.131601   
C        C      0.633700000000     0.688600000000     0.098000000000    -0.131601   
C        C      0.366300000000     0.311400000000     0.098000000000    -0.131601   
C        C      0.366300000000     0.688600000000     0.902000000000    -0.131601   
C        C      0.122530000000     0.507200000000     0.877470000000    -0.131601   
C        C      0.122530000000     0.492800000000     0.122530000000    -0.131601   
C        C      0.877470000000     0.492800000000     0.877470000000    -0.131601   
C        C      0.877470000000     0.507200000000     0.122530000000    -0.131601   
C        C      0.507200000000     0.877470000000     0.122530000000    -0.131601   
C        C      0.492800000000     0.877470000000     0.877470000000    -0.131601   
C        C      0.492800000000     0.122530000000     0.122530000000    -0.131601   
C        C      0.507200000000     0.122530000000     0.877470000000    -0.131601   
C        C      0.877470000000     0.122530000000     0.507200000000    -0.131601   
C        C      0.122530000000     0.122530000000     0.492800000000    -0.131601   
C        C      0.122530000000     0.877470000000     0.507200000000    -0.131601   
C        C      0.877470000000     0.877470000000     0.492800000000    -0.131601   
C        C      0.622530000000     0.007200000000     0.377470000000    -0.131601   
C        C      0.622530000000     0.992800000000     0.622530000000    -0.131601   
C        C      0.377470000000     0.992800000000     0.377470000000    -0.131601   
C        C      0.377470000000     0.007200000000     0.622530000000    -0.131601   
C        C      0.007200000000     0.377470000000     0.622530000000    -0.131601   
C        C      0.992800000000     0.377470000000     0.377470000000    -0.131601   
C        C      0.992800000000     0.622530000000     0.622530000000    -0.131601   
C        C      0.007200000000     0.622530000000     0.377470000000    -0.131601   
C        C      0.377470000000     0.622530000000     0.007200000000    -0.131601   
C        C      0.622530000000     0.622530000000     0.992800000000    -0.131601   
C        C      0.622530000000     0.377470000000     0.007200000000    -0.131601   
C        C      0.377470000000     0.377470000000     0.992800000000    -0.131601   
C        C      0.092800000000     0.585400000000     0.907200000000    -0.131601   
C        C      0.092800000000     0.414600000000     0.092800000000    -0.131601   
C        C      0.907200000000     0.414600000000     0.907200000000    -0.131601   
C        C      0.907200000000     0.585400000000     0.092800000000    -0.131601   
C        C      0.585400000000     0.907200000000     0.092800000000    -0.131601   
C        C      0.414600000000     0.907200000000     0.907200000000    -0.131601   
C        C      0.414600000000     0.092800000000     0.092800000000    -0.131601   
C        C      0.585400000000     0.092800000000     0.907200000000    -0.131601   
C        C      0.907200000000     0.092800000000     0.585400000000    -0.131601   
C        C      0.092800000000     0.092800000000     0.414600000000    -0.131601   
C        C      0.092800000000     0.907200000000     0.585400000000    -0.131601   
C        C      0.907200000000     0.907200000000     0.414600000000    -0.131601   
C        C      0.592800000000     0.085400000000     0.407200000000    -0.131601   
C        C      0.592800000000     0.914600000000     0.592800000000    -0.131601   
C        C      0.407200000000     0.914600000000     0.407200000000    -0.131601   
C        C      0.407200000000     0.085400000000     0.592800000000    -0.131601   
C        C      0.085400000000     0.407200000000     0.592800000000    -0.131601   
C        C      0.914600000000     0.407200000000     0.407200000000    -0.131601   
C        C      0.914600000000     0.592800000000     0.592800000000    -0.131601   
C        C      0.085400000000     0.592800000000     0.407200000000    -0.131601   
C        C      0.407200000000     0.592800000000     0.085400000000    -0.131601   
C        C      0.592800000000     0.592800000000     0.914600000000    -0.131601   
C        C      0.592800000000     0.407200000000     0.085400000000    -0.131601   
C        C      0.407200000000     0.407200000000     0.914600000000    -0.131601   
N        N      0.090400000000     0.470850000000     0.817150000000    -0.210083   
N        N      0.090400000000     0.529150000000     0.182850000000    -0.210083   
N        N      0.909600000000     0.529150000000     0.817150000000    -0.210083   
N        N      0.909600000000     0.470850000000     0.182850000000    -0.210083   
N        N      0.470850000000     0.909600000000     0.182850000000    -0.210083   
N        N      0.529150000000     0.909600000000     0.817150000000    -0.210083   
N        N      0.529150000000     0.090400000000     0.182850000000    -0.210083   
N        N      0.470850000000     0.090400000000     0.817150000000    -0.210083   
N        N      0.470850000000     0.817150000000     0.090400000000    -0.210083   
N        N      0.529150000000     0.182850000000     0.090400000000    -0.210083   
N        N      0.470850000000     0.182850000000     0.909600000000    -0.210083   
N        N      0.529150000000     0.817150000000     0.909600000000    -0.210083   
N        N      0.817150000000     0.529150000000     0.909600000000    -0.210083   
N        N      0.817150000000     0.470850000000     0.090400000000    -0.210083   
N        N      0.182850000000     0.470850000000     0.909600000000    -0.210083   
N        N      0.182850000000     0.529150000000     0.090400000000    -0.210083   
N        N      0.817150000000     0.090400000000     0.470850000000    -0.210083   
N        N      0.182850000000     0.090400000000     0.529150000000    -0.210083   
N        N      0.182850000000     0.909600000000     0.470850000000    -0.210083   
N        N      0.817150000000     0.909600000000     0.529150000000    -0.210083   
N        N      0.090400000000     0.817150000000     0.470850000000    -0.210083   
N        N      0.090400000000     0.182850000000     0.529150000000    -0.210083   
N        N      0.909600000000     0.817150000000     0.529150000000    -0.210083   
N        N      0.909600000000     0.182850000000     0.470850000000    -0.210083   
N        N      0.590400000000     0.970850000000     0.317150000000    -0.210083   
N        N      0.590400000000     0.029150000000     0.682850000000    -0.210083   
N        N      0.409600000000     0.029150000000     0.317150000000    -0.210083   
N        N      0.409600000000     0.970850000000     0.682850000000    -0.210083   
N        N      0.970850000000     0.409600000000     0.682850000000    -0.210083   
N        N      0.029150000000     0.409600000000     0.317150000000    -0.210083   
N        N      0.029150000000     0.590400000000     0.682850000000    -0.210083   
N        N      0.970850000000     0.590400000000     0.317150000000    -0.210083   
N        N      0.970850000000     0.317150000000     0.590400000000    -0.210083   
N        N      0.029150000000     0.682850000000     0.590400000000    -0.210083   
N        N      0.970850000000     0.682850000000     0.409600000000    -0.210083   
N        N      0.029150000000     0.317150000000     0.409600000000    -0.210083   
N        N      0.317150000000     0.029150000000     0.409600000000    -0.210083   
N        N      0.317150000000     0.970850000000     0.590400000000    -0.210083   
N        N      0.682850000000     0.970850000000     0.409600000000    -0.210083   
N        N      0.682850000000     0.029150000000     0.590400000000    -0.210083   
N        N      0.317150000000     0.590400000000     0.970850000000    -0.210083   
N        N      0.682850000000     0.590400000000     0.029150000000    -0.210083   
N        N      0.682850000000     0.409600000000     0.970850000000    -0.210083   
N        N      0.317150000000     0.409600000000     0.029150000000    -0.210083   
N        N      0.590400000000     0.317150000000     0.970850000000    -0.210083   
N        N      0.590400000000     0.682850000000     0.029150000000    -0.210083   
N        N      0.409600000000     0.317150000000     0.029150000000    -0.210083   
N        N      0.409600000000     0.682850000000     0.970850000000    -0.210083   


