data_OFUYUL_original

_audit_creation_method RASPA-1.0
_audit_creation_date 2022-1-30
_audit_author_name 'Felipe Lopes de Oliveira <felipe.lopes.oliveira@ibm.com>'

_cell_length_a    12.9256
_cell_length_b    14.555
_cell_length_c    16.784
_cell_angle_alpha 108.565
_cell_angle_beta  90
_cell_angle_gamma 90
_cell_volume      2993.3

_symmetry_cell_setting          triclinic
_symmetry_space_group_name_Hall 'P 1'
_symmetry_space_group_name_H-M  'P 1'
_symmetry_Int_Tables_number     1

_symmetry_equiv_pos_as_xyz 'x,y,z'

loop_
_atom_site_label
_atom_site_type_symbol
_atom_site_fract_x
_atom_site_fract_y
_atom_site_fract_z
_atom_site_charge
Zn       Zn     0.513780000000     0.819720000000     0.817900000000     0.491976   
Zn       Zn     0.447070000000     0.099250000000     0.345510000000     0.491976   
Zn       Zn     0.013780000000     0.680280000000     0.182100000000     0.491976   
Zn       Zn     0.947070000000     0.400750000000     0.654490000000     0.491976   
Zn       Zn     0.486220000000     0.180280000000     0.182100000000     0.491976   
Zn       Zn     0.552930000000     0.900750000000     0.654490000000     0.491976   
Zn       Zn     0.986220000000     0.319720000000     0.817900000000     0.491976   
Zn       Zn     0.052930000000     0.599250000000     0.345510000000     0.491976   
H        H      0.330800000000     0.716700000000     0.501500000000     0.119367   
H        H      0.074600000000     0.564400000000     0.509100000000     0.119367   
H        H      0.261900000000     0.648200000000     0.710400000000     0.119367   
H        H      0.237500000000     0.780100000000     0.042800000000     0.119367   
H        H      0.272800000000     0.984300000000     0.267600000000     0.119367   
H        H      0.440500000000     0.996400000000     0.069200000000     0.119367   
H        H      0.830800000000     0.783300000000     0.498500000000     0.119367   
H        H      0.574600000000     0.935600000000     0.490900000000     0.119367   
H        H      0.761900000000     0.851800000000     0.289600000000     0.119367   
H        H      0.737500000000     0.719900000000     0.957200000000     0.119367   
H        H      0.772800000000     0.515700000000     0.732400000000     0.119367   
H        H      0.940500000000     0.503600000000     0.930800000000     0.119367   
H        H      0.669200000000     0.283300000000     0.498500000000     0.119367   
H        H      0.925400000000     0.435600000000     0.490900000000     0.119367   
H        H      0.738100000000     0.351800000000     0.289600000000     0.119367   
H        H      0.762500000000     0.219900000000     0.957200000000     0.119367   
H        H      0.727200000000     0.015700000000     0.732400000000     0.119367   
H        H      0.559500000000     0.003600000000     0.930800000000     0.119367   
H        H      0.169200000000     0.216700000000     0.501500000000     0.119367   
H        H      0.425400000000     0.064400000000     0.509100000000     0.119367   
H        H      0.238100000000     0.148200000000     0.710400000000     0.119367   
H        H      0.262500000000     0.280100000000     0.042800000000     0.119367   
H        H      0.227200000000     0.484300000000     0.267600000000     0.119367   
H        H      0.059500000000     0.496400000000     0.069200000000     0.119367   
C        C      0.400500000000     0.750600000000     0.657100000000     0.0595083  
C        C      0.309200000000     0.694100000000     0.613500000000     0.0595083  
C        C      0.286000000000     0.688600000000     0.530500000000     0.0595083  
C        C      0.196800000000     0.641700000000     0.490500000000     0.0595083  
C        C      0.134000000000     0.596600000000     0.534700000000     0.0595083  
C        C      0.157400000000     0.598300000000     0.615400000000     0.0595083  
C        C      0.094300000000     0.541300000000     0.659300000000     0.0595083  
C        C      0.245700000000     0.647100000000     0.656100000000     0.0595083  
C        C      0.378200000000     0.835700000000     0.952600000000     0.0595083  
C        C      0.344300000000     0.882500000000     0.042300000000     0.0595083  
C        C      0.269400000000     0.836300000000     0.076400000000     0.0595083  
C        C      0.243200000000     0.874900000000     0.160500000000     0.0595083  
C        C      0.162300000000     0.824400000000     0.196600000000     0.0595083  
C        C      0.291100000000     0.958800000000     0.211200000000     0.0595083  
C        C      0.366300000000     0.004700000000     0.177700000000     0.0595083  
C        C      0.391400000000     0.965700000000     0.092400000000     0.0595083  
C        C      0.900500000000     0.749400000000     0.342900000000     0.0595083  
C        C      0.809200000000     0.805900000000     0.386500000000     0.0595083  
C        C      0.786000000000     0.811400000000     0.469500000000     0.0595083  
C        C      0.696800000000     0.858300000000     0.509500000000     0.0595083  
C        C      0.634000000000     0.903400000000     0.465300000000     0.0595083  
C        C      0.657400000000     0.901700000000     0.384600000000     0.0595083  
C        C      0.594300000000     0.958700000000     0.340700000000     0.0595083  
C        C      0.745700000000     0.852900000000     0.343900000000     0.0595083  
C        C      0.878200000000     0.664300000000     0.047400000000     0.0595083  
C        C      0.844300000000     0.617500000000     0.957700000000     0.0595083  
C        C      0.769400000000     0.663700000000     0.923600000000     0.0595083  
C        C      0.743200000000     0.625100000000     0.839500000000     0.0595083  
C        C      0.662300000000     0.675600000000     0.803400000000     0.0595083  
C        C      0.791100000000     0.541200000000     0.788800000000     0.0595083  
C        C      0.866300000000     0.495300000000     0.822300000000     0.0595083  
C        C      0.891400000000     0.534300000000     0.907600000000     0.0595083  
C        C      0.599500000000     0.249400000000     0.342900000000     0.0595083  
C        C      0.690800000000     0.305900000000     0.386500000000     0.0595083  
C        C      0.714000000000     0.311400000000     0.469500000000     0.0595083  
C        C      0.803200000000     0.358300000000     0.509500000000     0.0595083  
C        C      0.866000000000     0.403400000000     0.465300000000     0.0595083  
C        C      0.842600000000     0.401700000000     0.384600000000     0.0595083  
C        C      0.905700000000     0.458700000000     0.340700000000     0.0595083  
C        C      0.754300000000     0.352900000000     0.343900000000     0.0595083  
C        C      0.621800000000     0.164300000000     0.047400000000     0.0595083  
C        C      0.655700000000     0.117500000000     0.957700000000     0.0595083  
C        C      0.730600000000     0.163700000000     0.923600000000     0.0595083  
C        C      0.756800000000     0.125100000000     0.839500000000     0.0595083  
C        C      0.837700000000     0.175600000000     0.803400000000     0.0595083  
C        C      0.708900000000     0.041200000000     0.788800000000     0.0595083  
C        C      0.633700000000     0.995300000000     0.822300000000     0.0595083  
C        C      0.608600000000     0.034300000000     0.907600000000     0.0595083  
C        C      0.099500000000     0.250600000000     0.657100000000     0.0595083  
C        C      0.190800000000     0.194100000000     0.613500000000     0.0595083  
C        C      0.214000000000     0.188600000000     0.530500000000     0.0595083  
C        C      0.303200000000     0.141700000000     0.490500000000     0.0595083  
C        C      0.366000000000     0.096600000000     0.534700000000     0.0595083  
C        C      0.342600000000     0.098300000000     0.615400000000     0.0595083  
C        C      0.405700000000     0.041300000000     0.659300000000     0.0595083  
C        C      0.254300000000     0.147100000000     0.656100000000     0.0595083  
C        C      0.121800000000     0.335700000000     0.952600000000     0.0595083  
C        C      0.155700000000     0.382500000000     0.042300000000     0.0595083  
C        C      0.230600000000     0.336300000000     0.076400000000     0.0595083  
C        C      0.256800000000     0.374900000000     0.160500000000     0.0595083  
C        C      0.337700000000     0.324400000000     0.196600000000     0.0595083  
C        C      0.208900000000     0.458800000000     0.211200000000     0.0595083  
C        C      0.133700000000     0.504700000000     0.177700000000     0.0595083  
C        C      0.108600000000     0.465700000000     0.092400000000     0.0595083  
O        O      0.457800000000     0.789000000000     0.616000000000    -0.265229   
O        O      0.414100000000     0.755300000000     0.731800000000    -0.265229   
O        O      0.177100000000     0.641600000000     0.411900000000    -0.265229   
O        O      0.011800000000     0.504100000000     0.622200000000    -0.265229   
O        O      0.123900000000     0.532200000000     0.725700000000    -0.265229   
O        O      0.442000000000     0.882900000000     0.923600000000    -0.265229   
O        O      0.346400000000     0.754200000000     0.911500000000    -0.265229   
O        O      0.117700000000     0.753000000000     0.145000000000    -0.265229   
O        O      0.140500000000     0.854200000000     0.271200000000    -0.265229   
O        O      0.415200000000     0.085800000000     0.227500000000    -0.265229   
O        O      0.957800000000     0.711000000000     0.384000000000    -0.265229   
O        O      0.914100000000     0.744700000000     0.268200000000    -0.265229   
O        O      0.677100000000     0.858400000000     0.588100000000    -0.265229   
O        O      0.511800000000     0.995900000000     0.377800000000    -0.265229   
O        O      0.623900000000     0.967800000000     0.274300000000    -0.265229   
O        O      0.942000000000     0.617100000000     0.076400000000    -0.265229   
O        O      0.846400000000     0.745800000000     0.088500000000    -0.265229   
O        O      0.617700000000     0.747000000000     0.855000000000    -0.265229   
O        O      0.640500000000     0.645800000000     0.728800000000    -0.265229   
O        O      0.915200000000     0.414200000000     0.772500000000    -0.265229   
O        O      0.542200000000     0.211000000000     0.384000000000    -0.265229   
O        O      0.585900000000     0.244700000000     0.268200000000    -0.265229   
O        O      0.822900000000     0.358400000000     0.588100000000    -0.265229   
O        O      0.988200000000     0.495900000000     0.377800000000    -0.265229   
O        O      0.876100000000     0.467800000000     0.274300000000    -0.265229   
O        O      0.558000000000     0.117100000000     0.076400000000    -0.265229   
O        O      0.653600000000     0.245800000000     0.088500000000    -0.265229   
O        O      0.882300000000     0.247000000000     0.855000000000    -0.265229   
O        O      0.859500000000     0.145800000000     0.728800000000    -0.265229   
O        O      0.584800000000     0.914200000000     0.772500000000    -0.265229   
O        O      0.042200000000     0.289000000000     0.616000000000    -0.265229   
O        O      0.085900000000     0.255300000000     0.731800000000    -0.265229   
O        O      0.322900000000     0.141600000000     0.411900000000    -0.265229   
O        O      0.488200000000     0.004100000000     0.622200000000    -0.265229   
O        O      0.376100000000     0.032200000000     0.725700000000    -0.265229   
O        O      0.058000000000     0.382900000000     0.923600000000    -0.265229   
O        O      0.153600000000     0.254200000000     0.911500000000    -0.265229   
O        O      0.382300000000     0.253000000000     0.145000000000    -0.265229   
O        O      0.359500000000     0.354200000000     0.271200000000    -0.265229   
O        O      0.084800000000     0.585800000000     0.227500000000    -0.265229   


