data_OGAGIN_original

_audit_creation_method RASPA-1.0
_audit_creation_date 2022-1-28
_audit_author_name 'Felipe Lopes de Oliveira <felipe.lopes.oliveira@ibm.com>'

_cell_length_a    9.7714
_cell_length_b    9.9797
_cell_length_c    22.9229
_cell_angle_alpha 90
_cell_angle_beta  91.535
_cell_angle_gamma 90
_cell_volume      2234.54

_symmetry_cell_setting          triclinic
_symmetry_space_group_name_Hall 'P 1'
_symmetry_space_group_name_H-M  'P 1'
_symmetry_Int_Tables_number     1

_symmetry_equiv_pos_as_xyz 'x,y,z'

loop_
_atom_site_label
_atom_site_type_symbol
_atom_site_fract_x
_atom_site_fract_y
_atom_site_fract_z
_atom_site_charge
Zn       Zn     0.107520000000     0.317960000000     0.010870000000     0.450755   
Zn       Zn     0.346380000000     0.358830000000     0.503700000000     0.450755   
Zn       Zn     0.392480000000     0.817960000000     0.989130000000     0.450755   
Zn       Zn     0.153620000000     0.858830000000     0.496300000000     0.450755   
Zn       Zn     0.892480000000     0.682040000000     0.989130000000     0.450755   
Zn       Zn     0.653620000000     0.641170000000     0.496300000000     0.450755   
Zn       Zn     0.607520000000     0.182040000000     0.010870000000     0.450755   
Zn       Zn     0.846380000000     0.141170000000     0.503700000000     0.450755   
P        P      0.630980000000     0.337060000000     0.446190000000     0.414419   
P        P      0.827760000000     0.412510000000     0.059850000000     0.414419   
P        P      0.869020000000     0.837060000000     0.553810000000     0.414419   
P        P      0.672240000000     0.912510000000     0.940150000000     0.414419   
P        P      0.369020000000     0.662940000000     0.553810000000     0.414419   
P        P      0.172240000000     0.587490000000     0.940150000000     0.414419   
P        P      0.130980000000     0.162940000000     0.446190000000     0.414419   
P        P      0.327760000000     0.087490000000     0.059850000000     0.414419   
H        H      0.519400000000     0.421700000000     0.608100000000     0.0525281  
H        H      0.663100000000     0.316900000000     0.675400000000     0.0525281  
H        H      0.544100000000     0.960800000000     0.606800000000     0.0525281  
H        H      0.399300000000     0.074300000000     0.542600000000     0.0525281  
H        H      0.802700000000     0.028400000000     0.667900000000     0.0525281  
H        H      0.675700000000     0.966400000000     0.700800000000     0.0525281  
H        H      0.806200000000     0.212500000000     0.734400000000     0.0525281  
H        H      0.682000000000     0.145800000000     0.768200000000     0.0525281  
H        H      0.821900000000     0.956900000000     0.790700000000     0.0525281  
H        H      0.945700000000     0.024800000000     0.757700000000     0.0525281  
H        H      0.806900000000     0.281300000000     0.834100000000     0.0525281  
H        H      0.894700000000     0.371100000000     0.920200000000     0.0525281  
H        H      0.037300000000     0.951700000000     0.864300000000     0.0525281  
H        H      0.121000000000     0.049600000000     0.949400000000     0.0525281  
H        H      0.678500000000     0.335150000000     0.394700000000     0.0525281  
H        H      0.789200000000     0.465700000000     0.108300000000     0.0525281  
H        H      0.980600000000     0.921700000000     0.391900000000     0.0525281  
H        H      0.836900000000     0.816900000000     0.324600000000     0.0525281  
H        H      0.955900000000     0.460800000000     0.393200000000     0.0525281  
H        H      0.100700000000     0.574300000000     0.457400000000     0.0525281  
H        H      0.697300000000     0.528400000000     0.332100000000     0.0525281  
H        H      0.824300000000     0.466400000000     0.299200000000     0.0525281  
H        H      0.693800000000     0.712500000000     0.265600000000     0.0525281  
H        H      0.818000000000     0.645800000000     0.231800000000     0.0525281  
H        H      0.678100000000     0.456900000000     0.209300000000     0.0525281  
H        H      0.554300000000     0.524800000000     0.242300000000     0.0525281  
H        H      0.693100000000     0.781300000000     0.165900000000     0.0525281  
H        H      0.605300000000     0.871100000000     0.079800000000     0.0525281  
H        H      0.462700000000     0.451700000000     0.135700000000     0.0525281  
H        H      0.379000000000     0.549600000000     0.050600000000     0.0525281  
H        H      0.821500000000     0.835150000000     0.605300000000     0.0525281  
H        H      0.710800000000     0.965700000000     0.891700000000     0.0525281  
H        H      0.480600000000     0.578300000000     0.391900000000     0.0525281  
H        H      0.336900000000     0.683100000000     0.324600000000     0.0525281  
H        H      0.455900000000     0.039200000000     0.393200000000     0.0525281  
H        H      0.600700000000     0.925700000000     0.457400000000     0.0525281  
H        H      0.197300000000     0.971600000000     0.332100000000     0.0525281  
H        H      0.324300000000     0.033600000000     0.299200000000     0.0525281  
H        H      0.193800000000     0.787500000000     0.265600000000     0.0525281  
H        H      0.318000000000     0.854200000000     0.231800000000     0.0525281  
H        H      0.178100000000     0.043100000000     0.209300000000     0.0525281  
H        H      0.054300000000     0.975200000000     0.242300000000     0.0525281  
H        H      0.193100000000     0.718700000000     0.165900000000     0.0525281  
H        H      0.105300000000     0.628900000000     0.079800000000     0.0525281  
H        H      0.962700000000     0.048300000000     0.135700000000     0.0525281  
H        H      0.879000000000     0.950400000000     0.050600000000     0.0525281  
H        H      0.321500000000     0.664850000000     0.605300000000     0.0525281  
H        H      0.210800000000     0.534300000000     0.891700000000     0.0525281  
H        H      0.019400000000     0.078300000000     0.608100000000     0.0525281  
H        H      0.163100000000     0.183100000000     0.675400000000     0.0525281  
H        H      0.044100000000     0.539200000000     0.606800000000     0.0525281  
H        H      0.899300000000     0.425700000000     0.542600000000     0.0525281  
H        H      0.302700000000     0.471600000000     0.667900000000     0.0525281  
H        H      0.175700000000     0.533600000000     0.700800000000     0.0525281  
H        H      0.306200000000     0.287500000000     0.734400000000     0.0525281  
H        H      0.182000000000     0.354200000000     0.768200000000     0.0525281  
H        H      0.321900000000     0.543100000000     0.790700000000     0.0525281  
H        H      0.445700000000     0.475200000000     0.757700000000     0.0525281  
H        H      0.306900000000     0.218700000000     0.834100000000     0.0525281  
H        H      0.394700000000     0.128900000000     0.920200000000     0.0525281  
H        H      0.537300000000     0.548300000000     0.864300000000     0.0525281  
H        H      0.621000000000     0.450400000000     0.949400000000     0.0525281  
H        H      0.178500000000     0.164850000000     0.394700000000     0.0525281  
H        H      0.289200000000     0.034300000000     0.108300000000     0.0525281  
C        C      0.523800000000     0.326640000000     0.608160000000    -0.036661   
C        C      0.611090000000     0.264750000000     0.648200000000    -0.036661   
C        C      0.622590000000     0.125320000000     0.648520000000    -0.036661   
C        C      0.540610000000     0.055870000000     0.608050000000    -0.036661   
C        C      0.454140000000     0.124210000000     0.569650000000    -0.036661   
C        C      0.719560000000     0.051550000000     0.689440000000    -0.036661   
C        C      0.763550000000     0.126150000000     0.744930000000    -0.036661   
C        C      0.865100000000     0.043850000000     0.781610000000    -0.036661   
C        C      0.914840000000     0.106730000000     0.838090000000    -0.036661   
C        C      0.872400000000     0.232100000000     0.856740000000    -0.036661   
C        C      0.925400000000     0.285320000000     0.908300000000    -0.036661   
C        C      0.007720000000     0.039000000000     0.874490000000    -0.036661   
C        C      0.057270000000     0.097810000000     0.925390000000    -0.036661   
C        C      0.976200000000     0.826640000000     0.391840000000    -0.036661   
C        C      0.888910000000     0.764750000000     0.351800000000    -0.036661   
C        C      0.877410000000     0.625320000000     0.351480000000    -0.036661   
C        C      0.959390000000     0.555870000000     0.391950000000    -0.036661   
C        C      0.045860000000     0.624210000000     0.430350000000    -0.036661   
C        C      0.780440000000     0.551550000000     0.310560000000    -0.036661   
C        C      0.736450000000     0.626150000000     0.255070000000    -0.036661   
C        C      0.634900000000     0.543850000000     0.218390000000    -0.036661   
C        C      0.585160000000     0.606730000000     0.161910000000    -0.036661   
C        C      0.627600000000     0.732100000000     0.143260000000    -0.036661   
C        C      0.574600000000     0.785320000000     0.091700000000    -0.036661   
C        C      0.492280000000     0.539000000000     0.125510000000    -0.036661   
C        C      0.442730000000     0.597810000000     0.074610000000    -0.036661   
C        C      0.476200000000     0.673360000000     0.391840000000    -0.036661   
C        C      0.388910000000     0.735250000000     0.351800000000    -0.036661   
C        C      0.377410000000     0.874680000000     0.351480000000    -0.036661   
C        C      0.459390000000     0.944130000000     0.391950000000    -0.036661   
C        C      0.545860000000     0.875790000000     0.430350000000    -0.036661   
C        C      0.280440000000     0.948450000000     0.310560000000    -0.036661   
C        C      0.236450000000     0.873850000000     0.255070000000    -0.036661   
C        C      0.134900000000     0.956150000000     0.218390000000    -0.036661   
C        C      0.085160000000     0.893270000000     0.161910000000    -0.036661   
C        C      0.127600000000     0.767900000000     0.143260000000    -0.036661   
C        C      0.074600000000     0.714680000000     0.091700000000    -0.036661   
C        C      0.992280000000     0.961000000000     0.125510000000    -0.036661   
C        C      0.942730000000     0.902190000000     0.074610000000    -0.036661   
C        C      0.023800000000     0.173360000000     0.608160000000    -0.036661   
C        C      0.111090000000     0.235250000000     0.648200000000    -0.036661   
C        C      0.122590000000     0.374680000000     0.648520000000    -0.036661   
C        C      0.040610000000     0.444130000000     0.608050000000    -0.036661   
C        C      0.954140000000     0.375790000000     0.569650000000    -0.036661   
C        C      0.219560000000     0.448450000000     0.689440000000    -0.036661   
C        C      0.263550000000     0.373850000000     0.744930000000    -0.036661   
C        C      0.365100000000     0.456150000000     0.781610000000    -0.036661   
C        C      0.414840000000     0.393270000000     0.838090000000    -0.036661   
C        C      0.372400000000     0.267900000000     0.856740000000    -0.036661   
C        C      0.425400000000     0.214680000000     0.908300000000    -0.036661   
C        C      0.507720000000     0.461000000000     0.874490000000    -0.036661   
C        C      0.557270000000     0.402190000000     0.925390000000    -0.036661   
N        N      0.444870000000     0.259090000000     0.569210000000    -0.180784   
N        N      0.018170000000     0.221390000000     0.942220000000    -0.180784   
N        N      0.055130000000     0.759090000000     0.430790000000    -0.180784   
N        N      0.481830000000     0.721390000000     0.057780000000    -0.180784   
N        N      0.555130000000     0.740910000000     0.430790000000    -0.180784   
N        N      0.981830000000     0.778610000000     0.057780000000    -0.180784   
N        N      0.944870000000     0.240910000000     0.569210000000    -0.180784   
N        N      0.518170000000     0.278610000000     0.942220000000    -0.180784   
O        O      0.978850000000     0.376990000000     0.069090000000    -0.288772   
O        O      0.474490000000     0.347240000000     0.438830000000    -0.288772   
O        O      0.673930000000     0.206840000000     0.474790000000    -0.288772   
O        O      0.693130000000     0.458400000000     0.476510000000    -0.288772   
O        O      0.740160000000     0.291390000000     0.050270000000    -0.288772   
O        O      0.804050000000     0.518060000000     0.013080000000    -0.288772   
O        O      0.521150000000     0.876990000000     0.930910000000    -0.288772   
O        O      0.025510000000     0.847240000000     0.561170000000    -0.288772   
O        O      0.826070000000     0.706840000000     0.525210000000    -0.288772   
O        O      0.806870000000     0.958400000000     0.523490000000    -0.288772   
O        O      0.759840000000     0.791390000000     0.949730000000    -0.288772   
O        O      0.695950000000     0.018060000000     0.986920000000    -0.288772   
O        O      0.021150000000     0.623010000000     0.930910000000    -0.288772   
O        O      0.525510000000     0.652760000000     0.561170000000    -0.288772   
O        O      0.326070000000     0.793160000000     0.525210000000    -0.288772   
O        O      0.306870000000     0.541600000000     0.523490000000    -0.288772   
O        O      0.259840000000     0.708610000000     0.949730000000    -0.288772   
O        O      0.195950000000     0.481940000000     0.986920000000    -0.288772   
O        O      0.478850000000     0.123010000000     0.069090000000    -0.288772   
O        O      0.974490000000     0.152760000000     0.438830000000    -0.288772   
O        O      0.173930000000     0.293160000000     0.474790000000    -0.288772   
O        O      0.193130000000     0.041600000000     0.476510000000    -0.288772   
O        O      0.240160000000     0.208610000000     0.050270000000    -0.288772   
O        O      0.304050000000     0.981940000000     0.013080000000    -0.288772   


