data_OGAGAF_original

_audit_creation_method RASPA-1.0
_audit_creation_date 2022-1-30
_audit_author_name 'Felipe Lopes de Oliveira <felipe.lopes.oliveira@ibm.com>'

_cell_length_a    9.6299
_cell_length_b    9.7698
_cell_length_c    24.5639
_cell_angle_alpha 90
_cell_angle_beta  90
_cell_angle_gamma 90
_cell_volume      2311.03

_symmetry_cell_setting          triclinic
_symmetry_space_group_name_Hall 'P 1'
_symmetry_space_group_name_H-M  'P 1'
_symmetry_Int_Tables_number     1

_symmetry_equiv_pos_as_xyz 'x,y,z'

loop_
_atom_site_label
_atom_site_type_symbol
_atom_site_fract_x
_atom_site_fract_y
_atom_site_fract_z
_atom_site_charge
Zn       Zn     0.500170000000     0.887510000000     0.983180000000     0.453338   
Zn       Zn     0.368740000000     0.879300000000     0.502820000000     0.453338   
Zn       Zn     0.999830000000     0.112490000000     0.483180000000     0.453338   
Zn       Zn     0.131260000000     0.120700000000     0.002820000000     0.453338   
Zn       Zn     0.499830000000     0.387510000000     0.516820000000     0.453338   
Zn       Zn     0.631260000000     0.379300000000     0.997180000000     0.453338   
Zn       Zn     0.000170000000     0.612490000000     0.016820000000     0.453338   
Zn       Zn     0.868740000000     0.620700000000     0.497180000000     0.453338   
P        P      0.729800000000     0.661460000000     0.947000000000     0.416608   
P        P      0.419450000000     0.170080000000     0.935990000000     0.416608   
P        P      0.770200000000     0.338540000000     0.447000000000     0.416608   
P        P      0.080550000000     0.829920000000     0.435990000000     0.416608   
P        P      0.270200000000     0.161460000000     0.553000000000     0.416608   
P        P      0.580550000000     0.670080000000     0.564010000000     0.416608   
P        P      0.229800000000     0.838540000000     0.053000000000     0.416608   
P        P      0.919450000000     0.329920000000     0.064010000000     0.416608   
H        H      0.749900000000     0.849000000000     0.056200000000     0.0546836  
H        H      0.832100000000     0.928800000000     0.138200000000     0.0546836  
H        H      0.517800000000     0.200700000000     0.141300000000     0.0546836  
H        H      0.442400000000     0.113800000000     0.059700000000     0.0546836  
H        H      0.835300000000     0.112600000000     0.207000000000     0.0546836  
H        H      0.719000000000     0.229400000000     0.204400000000     0.0546836  
H        H      0.557500000000     0.073300000000     0.246000000000     0.0546836  
H        H      0.680200000000     0.963700000000     0.251700000000     0.0546836  
H        H      0.683000000000     0.226400000000     0.304000000000     0.0546836  
H        H      0.802200000000     0.113700000000     0.310700000000     0.0546836  
H        H      0.785000000000     0.958500000000     0.385100000000     0.0546836  
H        H      0.665400000000     0.872400000000     0.459000000000     0.0546836  
H        H      0.326600000000     0.065300000000     0.413200000000     0.0546836  
H        H      0.438200000000     0.154900000000     0.338300000000     0.0546836  
H        H      0.801700000000     0.690300000000     0.902000000000     0.0546836  
H        H      0.390100000000     0.223300000000     0.888500000000     0.0546836  
H        H      0.750100000000     0.151000000000     0.556200000000     0.0546836  
H        H      0.667900000000     0.071200000000     0.638200000000     0.0546836  
H        H      0.982200000000     0.799300000000     0.641300000000     0.0546836  
H        H      0.057600000000     0.886200000000     0.559700000000     0.0546836  
H        H      0.664700000000     0.887400000000     0.707000000000     0.0546836  
H        H      0.781000000000     0.770600000000     0.704400000000     0.0546836  
H        H      0.942500000000     0.926700000000     0.746000000000     0.0546836  
H        H      0.819800000000     0.036300000000     0.751700000000     0.0546836  
H        H      0.817000000000     0.773600000000     0.804000000000     0.0546836  
H        H      0.697800000000     0.886300000000     0.810700000000     0.0546836  
H        H      0.715000000000     0.041500000000     0.885100000000     0.0546836  
H        H      0.834600000000     0.127600000000     0.959000000000     0.0546836  
H        H      0.173400000000     0.934700000000     0.913200000000     0.0546836  
H        H      0.061800000000     0.845100000000     0.838300000000     0.0546836  
H        H      0.698300000000     0.309700000000     0.402000000000     0.0546836  
H        H      0.109900000000     0.776700000000     0.388500000000     0.0546836  
H        H      0.250100000000     0.349000000000     0.443800000000     0.0546836  
H        H      0.167900000000     0.428800000000     0.361800000000     0.0546836  
H        H      0.482200000000     0.700700000000     0.358700000000     0.0546836  
H        H      0.557600000000     0.613800000000     0.440300000000     0.0546836  
H        H      0.164700000000     0.612600000000     0.293000000000     0.0546836  
H        H      0.281000000000     0.729400000000     0.295600000000     0.0546836  
H        H      0.442500000000     0.573300000000     0.254000000000     0.0546836  
H        H      0.319800000000     0.463700000000     0.248300000000     0.0546836  
H        H      0.317000000000     0.726400000000     0.196000000000     0.0546836  
H        H      0.197800000000     0.613700000000     0.189300000000     0.0546836  
H        H      0.215000000000     0.458500000000     0.114900000000     0.0546836  
H        H      0.334600000000     0.372400000000     0.041000000000     0.0546836  
H        H      0.673400000000     0.565300000000     0.086800000000     0.0546836  
H        H      0.561800000000     0.654900000000     0.161700000000     0.0546836  
H        H      0.198300000000     0.190300000000     0.598000000000     0.0546836  
H        H      0.609900000000     0.723300000000     0.611500000000     0.0546836  
H        H      0.249900000000     0.651000000000     0.943800000000     0.0546836  
H        H      0.332100000000     0.571200000000     0.861800000000     0.0546836  
H        H      0.017800000000     0.299300000000     0.858700000000     0.0546836  
H        H      0.942400000000     0.386200000000     0.940300000000     0.0546836  
H        H      0.335300000000     0.387400000000     0.793000000000     0.0546836  
H        H      0.219000000000     0.270600000000     0.795600000000     0.0546836  
H        H      0.057500000000     0.426700000000     0.754000000000     0.0546836  
H        H      0.180200000000     0.536300000000     0.748300000000     0.0546836  
H        H      0.183000000000     0.273600000000     0.696000000000     0.0546836  
H        H      0.302200000000     0.386300000000     0.689300000000     0.0546836  
H        H      0.285000000000     0.541500000000     0.614900000000     0.0546836  
H        H      0.165400000000     0.627600000000     0.541000000000     0.0546836  
H        H      0.826600000000     0.434700000000     0.586800000000     0.0546836  
H        H      0.938200000000     0.345100000000     0.661700000000     0.0546836  
H        H      0.301700000000     0.809700000000     0.098000000000     0.0546836  
H        H      0.890100000000     0.276700000000     0.111500000000     0.0546836  
C        C      0.701700000000     0.921100000000     0.073890000000    -0.0379964  
C        C      0.751500000000     0.969100000000     0.122710000000    -0.0379964  
C        C      0.685900000000     0.074800000000     0.149540000000    -0.0379964  
C        C      0.567500000000     0.128000000000     0.124590000000    -0.0379964  
C        C      0.522900000000     0.075500000000     0.076010000000    -0.0379964  
C        C      0.734400000000     0.129200000000     0.203310000000    -0.0379964  
C        C      0.658900000000     0.062800000000     0.251060000000    -0.0379964  
C        C      0.701200000000     0.126700000000     0.305370000000    -0.0379964  
C        C      0.625500000000     0.066900000000     0.353310000000    -0.0379964  
C        C      0.690100000000     0.981900000000     0.390060000000    -0.0379964  
C        C      0.618300000000     0.930400000000     0.434080000000    -0.0379964  
C        C      0.421400000000     0.042700000000     0.407300000000    -0.0379964  
C        C      0.487400000000     0.097000000000     0.362620000000    -0.0379964  
C        C      0.798300000000     0.078900000000     0.573890000000    -0.0379964  
C        C      0.748500000000     0.030900000000     0.622710000000    -0.0379964  
C        C      0.814100000000     0.925200000000     0.649540000000    -0.0379964  
C        C      0.932500000000     0.872000000000     0.624590000000    -0.0379964  
C        C      0.977100000000     0.924500000000     0.576010000000    -0.0379964  
C        C      0.765600000000     0.870800000000     0.703310000000    -0.0379964  
C        C      0.841100000000     0.937200000000     0.751060000000    -0.0379964  
C        C      0.798800000000     0.873300000000     0.805370000000    -0.0379964  
C        C      0.874500000000     0.933100000000     0.853310000000    -0.0379964  
C        C      0.809900000000     0.018100000000     0.890060000000    -0.0379964  
C        C      0.881700000000     0.069600000000     0.934080000000    -0.0379964  
C        C      0.078600000000     0.957300000000     0.907300000000    -0.0379964  
C        C      0.012600000000     0.903000000000     0.862620000000    -0.0379964  
C        C      0.298300000000     0.421100000000     0.426110000000    -0.0379964  
C        C      0.248500000000     0.469100000000     0.377290000000    -0.0379964  
C        C      0.314100000000     0.574800000000     0.350460000000    -0.0379964  
C        C      0.432500000000     0.628000000000     0.375410000000    -0.0379964  
C        C      0.477100000000     0.575500000000     0.423990000000    -0.0379964  
C        C      0.265600000000     0.629200000000     0.296690000000    -0.0379964  
C        C      0.341100000000     0.562800000000     0.248940000000    -0.0379964  
C        C      0.298800000000     0.626700000000     0.194630000000    -0.0379964  
C        C      0.374500000000     0.566900000000     0.146690000000    -0.0379964  
C        C      0.309900000000     0.481900000000     0.109940000000    -0.0379964  
C        C      0.381700000000     0.430400000000     0.065920000000    -0.0379964  
C        C      0.578600000000     0.542700000000     0.092700000000    -0.0379964  
C        C      0.512600000000     0.597000000000     0.137380000000    -0.0379964  
C        C      0.201700000000     0.578900000000     0.926110000000    -0.0379964  
C        C      0.251500000000     0.530900000000     0.877290000000    -0.0379964  
C        C      0.185900000000     0.425200000000     0.850460000000    -0.0379964  
C        C      0.067500000000     0.372000000000     0.875410000000    -0.0379964  
C        C      0.022900000000     0.424500000000     0.923990000000    -0.0379964  
C        C      0.234400000000     0.370800000000     0.796690000000    -0.0379964  
C        C      0.158900000000     0.437200000000     0.748940000000    -0.0379964  
C        C      0.201200000000     0.373300000000     0.694630000000    -0.0379964  
C        C      0.125500000000     0.433100000000     0.646690000000    -0.0379964  
C        C      0.190100000000     0.518100000000     0.609940000000    -0.0379964  
C        C      0.118300000000     0.569600000000     0.565920000000    -0.0379964  
C        C      0.921400000000     0.457300000000     0.592700000000    -0.0379964  
C        C      0.987400000000     0.403000000000     0.637380000000    -0.0379964  
N        N      0.587430000000     0.972660000000     0.050360000000    -0.187551   
N        N      0.483750000000     0.959930000000     0.442780000000    -0.187551   
N        N      0.912570000000     0.027340000000     0.550360000000    -0.187551   
N        N      0.016250000000     0.040070000000     0.942780000000    -0.187551   
N        N      0.412570000000     0.472660000000     0.449640000000    -0.187551   
N        N      0.516250000000     0.459930000000     0.057220000000    -0.187551   
N        N      0.087430000000     0.527340000000     0.949640000000    -0.187551   
N        N      0.983750000000     0.540070000000     0.557220000000    -0.187551   
O        O      0.604650000000     0.752040000000     0.945860000000    -0.290963   
O        O      0.442750000000     0.017710000000     0.926690000000    -0.290963   
O        O      0.825230000000     0.692450000000     0.994140000000    -0.290963   
O        O      0.691660000000     0.510510000000     0.943140000000    -0.290963   
O        O      0.298170000000     0.200780000000     0.972690000000    -0.290963   
O        O      0.551350000000     0.237430000000     0.955100000000    -0.290963   
O        O      0.895350000000     0.247960000000     0.445860000000    -0.290963   
O        O      0.057250000000     0.982290000000     0.426690000000    -0.290963   
O        O      0.674770000000     0.307550000000     0.494140000000    -0.290963   
O        O      0.808340000000     0.489490000000     0.443140000000    -0.290963   
O        O      0.201830000000     0.799220000000     0.472690000000    -0.290963   
O        O      0.948650000000     0.762570000000     0.455100000000    -0.290963   
O        O      0.395350000000     0.252040000000     0.554140000000    -0.290963   
O        O      0.557250000000     0.517710000000     0.573310000000    -0.290963   
O        O      0.174770000000     0.192450000000     0.505860000000    -0.290963   
O        O      0.308340000000     0.010510000000     0.556860000000    -0.290963   
O        O      0.701830000000     0.700780000000     0.527310000000    -0.290963   
O        O      0.448650000000     0.737430000000     0.544900000000    -0.290963   
O        O      0.104650000000     0.747960000000     0.054140000000    -0.290963   
O        O      0.942750000000     0.482290000000     0.073310000000    -0.290963   
O        O      0.325230000000     0.807550000000     0.005860000000    -0.290963   
O        O      0.191660000000     0.989490000000     0.056860000000    -0.290963   
O        O      0.798170000000     0.299220000000     0.027310000000    -0.290963   
O        O      0.051350000000     0.262570000000     0.044900000000    -0.290963   


