data_OHOLIH_original

_audit_creation_method RASPA-1.0
_audit_creation_date 2022-1-28
_audit_author_name 'Felipe Lopes de Oliveira <felipe.lopes.oliveira@ibm.com>'

_cell_length_a    10.673
_cell_length_b    12.1006
_cell_length_c    12.1006
_cell_angle_alpha 83.8935
_cell_angle_beta  75.4292
_cell_angle_gamma 75.429
_cell_volume      1462.33

_symmetry_cell_setting          triclinic
_symmetry_space_group_name_Hall 'P 1'
_symmetry_space_group_name_H-M  'P 1'
_symmetry_Int_Tables_number     1

_symmetry_equiv_pos_as_xyz 'x,y,z'

loop_
_atom_site_label
_atom_site_type_symbol
_atom_site_fract_x
_atom_site_fract_y
_atom_site_fract_z
_atom_site_charge
Zn       Zn     0.250000000000     0.886120000000     0.113880000000     0.477183   
Zn       Zn     0.750000000000     0.113880000000     0.886120000000     0.477183   
Zn       Zn     0.000000000000     0.000000000000     0.000000000000     0.477183   
Zn       Zn     0.500000000000     0.000000000000     0.000000000000     0.477183   
H        H      0.910800000000     0.184800000000     0.184600000000     0.059036   
H        H      0.773600000000     0.360200000000     0.212000000000     0.059036   
H        H      0.232200000000     0.321900000000     0.092700000000     0.059036   
H        H      0.198200000000     0.534700000000     0.099100000000     0.059036   
H        H      0.827100000000     0.731500000000     0.157100000000     0.059036   
H        H      0.737900000000     0.573100000000     0.198700000000     0.059036   
H        H      0.589200000000     0.815400000000     0.815200000000     0.059036   
H        H      0.726400000000     0.788000000000     0.639800000000     0.059036   
H        H      0.267800000000     0.907300000000     0.678100000000     0.059036   
H        H      0.301800000000     0.900900000000     0.465300000000     0.059036   
H        H      0.672900000000     0.842900000000     0.268500000000     0.059036   
H        H      0.762100000000     0.801300000000     0.426900000000     0.059036   
H        H      0.089200000000     0.815200000000     0.815400000000     0.059036   
H        H      0.226400000000     0.639800000000     0.788000000000     0.059036   
H        H      0.767800000000     0.678100000000     0.907300000000     0.059036   
H        H      0.801800000000     0.465300000000     0.900900000000     0.059036   
H        H      0.172900000000     0.268500000000     0.842900000000     0.059036   
H        H      0.262100000000     0.426900000000     0.801300000000     0.059036   
H        H      0.410800000000     0.184600000000     0.184800000000     0.059036   
H        H      0.273600000000     0.212000000000     0.360200000000     0.059036   
H        H      0.732200000000     0.092700000000     0.321900000000     0.059036   
H        H      0.698200000000     0.099100000000     0.534700000000     0.059036   
H        H      0.327100000000     0.157100000000     0.731500000000     0.059036   
H        H      0.237900000000     0.198700000000     0.573100000000     0.059036   
C        C      0.179400000000     0.120500000000     0.103900000000     0.0289475  
C        C      0.088700000000     0.236300000000     0.131500000000     0.0289475  
C        C      0.946700000000     0.249700000000     0.170700000000     0.0289475  
C        C      0.866000000000     0.353200000000     0.187600000000     0.0289475  
C        C      0.917100000000     0.453000000000     0.169600000000     0.0289475  
C        C      0.055100000000     0.442000000000     0.136400000000     0.0289475  
C        C      0.139500000000     0.330300000000     0.116500000000     0.0289475  
C        C      0.105700000000     0.541700000000     0.119500000000     0.0289475  
C        C      0.072900000000     0.754600000000     0.112000000000     0.0289475  
C        C      0.023000000000     0.646800000000     0.132000000000     0.0289475  
C        C      0.884000000000     0.658100000000     0.156100000000     0.0289475  
C        C      0.830700000000     0.564300000000     0.178100000000     0.0289475  
C        C      0.320600000000     0.896100000000     0.879500000000     0.0289475  
C        C      0.411300000000     0.868500000000     0.763700000000     0.0289475  
C        C      0.553300000000     0.829300000000     0.750300000000     0.0289475  
C        C      0.634000000000     0.812400000000     0.646800000000     0.0289475  
C        C      0.582900000000     0.830400000000     0.547000000000     0.0289475  
C        C      0.444900000000     0.863600000000     0.558000000000     0.0289475  
C        C      0.360500000000     0.883500000000     0.669700000000     0.0289475  
C        C      0.394300000000     0.880500000000     0.458300000000     0.0289475  
C        C      0.427100000000     0.888000000000     0.245400000000     0.0289475  
C        C      0.477000000000     0.868000000000     0.353200000000     0.0289475  
C        C      0.616000000000     0.843900000000     0.341900000000     0.0289475  
C        C      0.669300000000     0.821900000000     0.435700000000     0.0289475  
C        C      0.820600000000     0.879500000000     0.896100000000     0.0289475  
C        C      0.911300000000     0.763700000000     0.868500000000     0.0289475  
C        C      0.053300000000     0.750300000000     0.829300000000     0.0289475  
C        C      0.134000000000     0.646800000000     0.812400000000     0.0289475  
C        C      0.082900000000     0.547000000000     0.830400000000     0.0289475  
C        C      0.944900000000     0.558000000000     0.863600000000     0.0289475  
C        C      0.860500000000     0.669700000000     0.883500000000     0.0289475  
C        C      0.894300000000     0.458300000000     0.880500000000     0.0289475  
C        C      0.927100000000     0.245400000000     0.888000000000     0.0289475  
C        C      0.977000000000     0.353200000000     0.868000000000     0.0289475  
C        C      0.116000000000     0.341900000000     0.843900000000     0.0289475  
C        C      0.169300000000     0.435700000000     0.821900000000     0.0289475  
C        C      0.679400000000     0.103900000000     0.120500000000     0.0289475  
C        C      0.588700000000     0.131500000000     0.236300000000     0.0289475  
C        C      0.446700000000     0.170700000000     0.249700000000     0.0289475  
C        C      0.366000000000     0.187600000000     0.353200000000     0.0289475  
C        C      0.417100000000     0.169600000000     0.453000000000     0.0289475  
C        C      0.555100000000     0.136400000000     0.442000000000     0.0289475  
C        C      0.639500000000     0.116500000000     0.330300000000     0.0289475  
C        C      0.605700000000     0.119500000000     0.541700000000     0.0289475  
C        C      0.572900000000     0.112000000000     0.754600000000     0.0289475  
C        C      0.523000000000     0.132000000000     0.646800000000     0.0289475  
C        C      0.384000000000     0.156100000000     0.658100000000     0.0289475  
C        C      0.330700000000     0.178100000000     0.564300000000     0.0289475  
O        O      0.120300000000     0.036500000000     0.116100000000    -0.294692   
O        O      0.187800000000     0.745800000000     0.121000000000    -0.294692   
O        O      0.992400000000     0.847000000000     0.090400000000    -0.294692   
O        O      0.300700000000     0.109900000000     0.074900000000    -0.294692   
O        O      0.379700000000     0.883900000000     0.963500000000    -0.294692   
O        O      0.312200000000     0.879000000000     0.254200000000    -0.294692   
O        O      0.507600000000     0.909600000000     0.153000000000    -0.294692   
O        O      0.199300000000     0.925100000000     0.890100000000    -0.294692   
O        O      0.879700000000     0.963500000000     0.883900000000    -0.294692   
O        O      0.812200000000     0.254200000000     0.879000000000    -0.294692   
O        O      0.007600000000     0.153000000000     0.909600000000    -0.294692   
O        O      0.699300000000     0.890100000000     0.925100000000    -0.294692   
O        O      0.620300000000     0.116100000000     0.036500000000    -0.294692   
O        O      0.687800000000     0.121000000000     0.745800000000    -0.294692   
O        O      0.492400000000     0.090400000000     0.847000000000    -0.294692   
O        O      0.800700000000     0.074900000000     0.109900000000    -0.294692   


