data_OJIWIO_original

_audit_creation_method RASPA-1.0
_audit_creation_date 2022-1-31
_audit_author_name 'Felipe Lopes de Oliveira <felipe.lopes.oliveira@ibm.com>'

_cell_length_a    11.217
_cell_length_b    11.526
_cell_length_c    17.703
_cell_angle_alpha 90
_cell_angle_beta  90
_cell_angle_gamma 106.917
_cell_volume      2189.73

_symmetry_cell_setting          triclinic
_symmetry_space_group_name_Hall 'P 1'
_symmetry_space_group_name_H-M  'P 1'
_symmetry_Int_Tables_number     1

_symmetry_equiv_pos_as_xyz 'x,y,z'

loop_
_atom_site_label
_atom_site_type_symbol
_atom_site_fract_x
_atom_site_fract_y
_atom_site_fract_z
_atom_site_charge
Zn       Zn     0.458950000000     0.864650000000     0.992230000000     0.458157   
Zn       Zn     0.041050000000     0.135350000000     0.492230000000     0.458157   
Zn       Zn     0.541050000000     0.135350000000     0.007770000000     0.458157   
Zn       Zn     0.958950000000     0.864650000000     0.507770000000     0.458157   
H        H      0.648300000000     0.858900000000     0.634800000000     0.0651056  
H        H      0.555900000000     0.846100000000     0.753800000000     0.0651056  
H        H      0.703600000000     0.205500000000     0.781100000000     0.0651056  
H        H      0.805100000000     0.218700000000     0.664000000000     0.0651056  
H        H      0.212400000000     0.706400000000     0.035400000000     0.0651056  
H        H      0.097200000000     0.502800000000     0.039100000000     0.0651056  
H        H      0.380400000000     0.424300000000     0.933800000000     0.0651056  
H        H      0.485400000000     0.628300000000     0.930500000000     0.0651056  
H        H      0.902600000000     0.126300000000     0.843100000000     0.0651056  
H        H      0.201500000000     0.081100000000     0.151800000000     0.0651056  
H        H      0.851700000000     0.141100000000     0.134800000000     0.0651056  
H        H      0.944100000000     0.153900000000     0.253800000000     0.0651056  
H        H      0.796400000000     0.794500000000     0.281100000000     0.0651056  
H        H      0.694900000000     0.781300000000     0.164000000000     0.0651056  
H        H      0.287600000000     0.293600000000     0.535400000000     0.0651056  
H        H      0.402800000000     0.497200000000     0.539100000000     0.0651056  
H        H      0.119600000000     0.575700000000     0.433800000000     0.0651056  
H        H      0.014600000000     0.371700000000     0.430500000000     0.0651056  
H        H      0.597400000000     0.873700000000     0.343100000000     0.0651056  
H        H      0.298500000000     0.918900000000     0.651800000000     0.0651056  
H        H      0.351700000000     0.141100000000     0.365200000000     0.0651056  
H        H      0.444100000000     0.153900000000     0.246200000000     0.0651056  
H        H      0.296400000000     0.794500000000     0.218900000000     0.0651056  
H        H      0.194900000000     0.781300000000     0.336000000000     0.0651056  
H        H      0.787600000000     0.293600000000     0.964600000000     0.0651056  
H        H      0.902800000000     0.497200000000     0.960900000000     0.0651056  
H        H      0.619600000000     0.575700000000     0.066200000000     0.0651056  
H        H      0.514600000000     0.371700000000     0.069500000000     0.0651056  
H        H      0.097400000000     0.873700000000     0.156900000000     0.0651056  
H        H      0.798500000000     0.918900000000     0.848200000000     0.0651056  
H        H      0.148300000000     0.858900000000     0.865200000000     0.0651056  
H        H      0.055900000000     0.846100000000     0.746200000000     0.0651056  
H        H      0.203600000000     0.205500000000     0.718900000000     0.0651056  
H        H      0.305100000000     0.218700000000     0.836000000000     0.0651056  
H        H      0.712400000000     0.706400000000     0.464600000000     0.0651056  
H        H      0.597200000000     0.502800000000     0.460900000000     0.0651056  
H        H      0.880400000000     0.424300000000     0.566200000000     0.0651056  
H        H      0.985400000000     0.628300000000     0.569500000000     0.0651056  
H        H      0.402600000000     0.126300000000     0.656900000000     0.0651056  
H        H      0.701500000000     0.081100000000     0.348200000000     0.0651056  
C        C      0.816000000000     0.044100000000     0.566500000000     0.0394383  
C        C      0.740700000000     0.039600000000     0.638700000000     0.0394383  
C        C      0.662900000000     0.928600000000     0.665000000000     0.0394383  
C        C      0.606800000000     0.921200000000     0.736300000000     0.0394383  
C        C      0.625800000000     0.023800000000     0.781400000000     0.0394383  
C        C      0.695800000000     0.134600000000     0.752800000000     0.0394383  
C        C      0.755600000000     0.143200000000     0.681900000000     0.0394383  
C        C      0.576500000000     0.014400000000     0.862400000000     0.0394383  
C        C      0.247300000000     0.648200000000     0.015300000000     0.0394383  
C        C      0.177500000000     0.526100000000     0.017900000000     0.0394383  
C        C      0.228200000000     0.441300000000     0.989100000000     0.0394383  
C        C      0.344500000000     0.480600000000     0.955500000000     0.0394383  
C        C      0.407200000000     0.602500000000     0.954300000000     0.0394383  
C        C      0.189000000000     0.244400000000     0.052800000000     0.0394383  
C        C      0.119000000000     0.115600000000     0.056100000000     0.0394383  
C        C      0.032000000000     0.064600000000     0.998800000000     0.0394383  
C        C      0.003300000000     0.133700000000     0.938500000000     0.0394383  
C        C      0.067900000000     0.266700000000     0.936800000000     0.0394383  
C        C      0.918700000000     0.079300000000     0.883100000000     0.0394383  
C        C      0.143300000000     0.045300000000     0.114200000000     0.0394383  
C        C      0.684000000000     0.955900000000     0.066500000000     0.0394383  
C        C      0.759300000000     0.960400000000     0.138700000000     0.0394383  
C        C      0.837100000000     0.071400000000     0.165000000000     0.0394383  
C        C      0.893200000000     0.078800000000     0.236300000000     0.0394383  
C        C      0.874200000000     0.976200000000     0.281400000000     0.0394383  
C        C      0.804200000000     0.865400000000     0.252800000000     0.0394383  
C        C      0.744400000000     0.856800000000     0.181900000000     0.0394383  
C        C      0.923500000000     0.985600000000     0.362400000000     0.0394383  
C        C      0.252700000000     0.351800000000     0.515300000000     0.0394383  
C        C      0.322500000000     0.473900000000     0.517900000000     0.0394383  
C        C      0.271800000000     0.558700000000     0.489100000000     0.0394383  
C        C      0.155500000000     0.519400000000     0.455500000000     0.0394383  
C        C      0.092800000000     0.397500000000     0.454300000000     0.0394383  
C        C      0.311000000000     0.755600000000     0.552800000000     0.0394383  
C        C      0.381000000000     0.884400000000     0.556100000000     0.0394383  
C        C      0.468000000000     0.935400000000     0.498800000000     0.0394383  
C        C      0.496700000000     0.866300000000     0.438500000000     0.0394383  
C        C      0.432100000000     0.733300000000     0.436800000000     0.0394383  
C        C      0.581300000000     0.920700000000     0.383100000000     0.0394383  
C        C      0.356700000000     0.954700000000     0.614200000000     0.0394383  
C        C      0.184000000000     0.955900000000     0.433500000000     0.0394383  
C        C      0.259300000000     0.960400000000     0.361300000000     0.0394383  
C        C      0.337100000000     0.071400000000     0.335000000000     0.0394383  
C        C      0.393200000000     0.078800000000     0.263700000000     0.0394383  
C        C      0.374200000000     0.976200000000     0.218600000000     0.0394383  
C        C      0.304200000000     0.865400000000     0.247200000000     0.0394383  
C        C      0.244400000000     0.856800000000     0.318100000000     0.0394383  
C        C      0.423500000000     0.985600000000     0.137600000000     0.0394383  
C        C      0.752700000000     0.351800000000     0.984700000000     0.0394383  
C        C      0.822500000000     0.473900000000     0.982100000000     0.0394383  
C        C      0.771800000000     0.558700000000     0.010900000000     0.0394383  
C        C      0.655500000000     0.519400000000     0.044500000000     0.0394383  
C        C      0.592800000000     0.397500000000     0.045700000000     0.0394383  
C        C      0.811000000000     0.755600000000     0.947200000000     0.0394383  
C        C      0.881000000000     0.884400000000     0.943900000000     0.0394383  
C        C      0.968000000000     0.935400000000     0.001200000000     0.0394383  
C        C      0.996700000000     0.866300000000     0.061500000000     0.0394383  
C        C      0.932100000000     0.733300000000     0.063200000000     0.0394383  
C        C      0.081300000000     0.920700000000     0.116900000000     0.0394383  
C        C      0.856700000000     0.954700000000     0.885800000000     0.0394383  
C        C      0.316000000000     0.044100000000     0.933500000000     0.0394383  
C        C      0.240700000000     0.039600000000     0.861300000000     0.0394383  
C        C      0.162900000000     0.928600000000     0.835000000000     0.0394383  
C        C      0.106800000000     0.921200000000     0.763700000000     0.0394383  
C        C      0.125800000000     0.023800000000     0.718600000000     0.0394383  
C        C      0.195800000000     0.134600000000     0.747200000000     0.0394383  
C        C      0.255600000000     0.143200000000     0.818100000000     0.0394383  
C        C      0.076500000000     0.014400000000     0.637600000000     0.0394383  
C        C      0.747300000000     0.648200000000     0.484700000000     0.0394383  
C        C      0.677500000000     0.526100000000     0.482100000000     0.0394383  
C        C      0.728200000000     0.441300000000     0.510900000000     0.0394383  
C        C      0.844500000000     0.480600000000     0.544500000000     0.0394383  
C        C      0.907200000000     0.602500000000     0.545700000000     0.0394383  
C        C      0.689000000000     0.244400000000     0.447200000000     0.0394383  
C        C      0.619000000000     0.115600000000     0.443900000000     0.0394383  
C        C      0.532000000000     0.064600000000     0.501200000000     0.0394383  
C        C      0.503300000000     0.133700000000     0.561500000000     0.0394383  
C        C      0.567900000000     0.266700000000     0.563200000000     0.0394383  
C        C      0.418700000000     0.079300000000     0.616900000000     0.0394383  
C        C      0.643300000000     0.045300000000     0.385800000000     0.0394383  
N        N      0.360700000000     0.685600000000     0.985700000000    -0.1824     
N        N      0.160000000000     0.311900000000     0.992000000000    -0.1824     
N        N      0.139300000000     0.314400000000     0.485700000000    -0.1824     
N        N      0.340000000000     0.688100000000     0.492000000000    -0.1824     
N        N      0.639300000000     0.314400000000     0.014300000000    -0.1824     
N        N      0.840000000000     0.688100000000     0.008000000000    -0.1824     
N        N      0.860700000000     0.685600000000     0.514300000000    -0.1824     
N        N      0.660000000000     0.311900000000     0.508000000000    -0.1824     
O        O      0.817500000000     0.942200000000     0.539100000000    -0.25553    
O        O      0.876100000000     0.146400000000     0.540800000000    -0.25553    
O        O      0.529300000000     0.907000000000     0.887500000000    -0.25553    
O        O      0.590900000000     0.111100000000     0.897900000000    -0.25553    
O        O      0.271500000000     0.298000000000     0.097800000000    -0.25553    
O        O      0.044700000000     0.335200000000     0.889000000000    -0.25553    
O        O      0.682500000000     0.057800000000     0.039100000000    -0.25553    
O        O      0.623900000000     0.853600000000     0.040800000000    -0.25553    
O        O      0.970700000000     0.093000000000     0.387500000000    -0.25553    
O        O      0.909100000000     0.888900000000     0.397900000000    -0.25553    
O        O      0.228500000000     0.702000000000     0.597800000000    -0.25553    
O        O      0.455300000000     0.664800000000     0.389000000000    -0.25553    
O        O      0.182500000000     0.057800000000     0.460900000000    -0.25553    
O        O      0.123900000000     0.853600000000     0.459200000000    -0.25553    
O        O      0.470700000000     0.093000000000     0.112500000000    -0.25553    
O        O      0.409100000000     0.888900000000     0.102100000000    -0.25553    
O        O      0.728500000000     0.702000000000     0.902200000000    -0.25553    
O        O      0.955300000000     0.664800000000     0.111000000000    -0.25553    
O        O      0.317500000000     0.942200000000     0.960900000000    -0.25553    
O        O      0.376100000000     0.146400000000     0.959200000000    -0.25553    
O        O      0.029300000000     0.907000000000     0.612500000000    -0.25553    
O        O      0.090900000000     0.111100000000     0.602100000000    -0.25553    
O        O      0.771500000000     0.298000000000     0.402200000000    -0.25553    
O        O      0.544700000000     0.335200000000     0.611000000000    -0.25553    


