data_OSAVEK_original

_audit_creation_method RASPA-1.0
_audit_creation_date 2022-1-29
_audit_author_name 'Felipe Lopes de Oliveira <felipe.lopes.oliveira@ibm.com>'

_cell_length_a    6.7299
_cell_length_b    10.9375
_cell_length_c    18.584
_cell_angle_alpha 90
_cell_angle_beta  90
_cell_angle_gamma 90
_cell_volume      1367.94

_symmetry_cell_setting          triclinic
_symmetry_space_group_name_Hall 'P 1'
_symmetry_space_group_name_H-M  'P 1'
_symmetry_Int_Tables_number     1

_symmetry_equiv_pos_as_xyz 'x,y,z'

loop_
_atom_site_label
_atom_site_type_symbol
_atom_site_fract_x
_atom_site_fract_y
_atom_site_fract_z
_atom_site_charge
Ca       Ca     0.250000000000     0.590470000000     0.013480000000     1.29463    
Ca       Ca     0.750000000000     0.909530000000     0.513480000000     1.29463    
Ca       Ca     0.750000000000     0.409530000000     0.986520000000     1.29463    
Ca       Ca     0.250000000000     0.090470000000     0.486520000000     1.29463    
H        H      0.543700000000     0.743800000000     0.782200000000     0.0168257  
H        H      0.546300000000     0.815000000000     0.665900000000     0.0168257  
H        H      0.456300000000     0.756200000000     0.282200000000     0.0168257  
H        H      0.453700000000     0.685000000000     0.165900000000     0.0168257  
H        H      0.043700000000     0.256200000000     0.217800000000     0.0168257  
H        H      0.046300000000     0.185000000000     0.334100000000     0.0168257  
H        H      0.956300000000     0.243800000000     0.717800000000     0.0168257  
H        H      0.953700000000     0.315000000000     0.834100000000     0.0168257  
H        H      0.456300000000     0.256200000000     0.217800000000     0.0168257  
H        H      0.453700000000     0.185000000000     0.334100000000     0.0168257  
H        H      0.543700000000     0.243800000000     0.717800000000     0.0168257  
H        H      0.546300000000     0.315000000000     0.834100000000     0.0168257  
H        H      0.956300000000     0.743800000000     0.782200000000     0.0168257  
H        H      0.953700000000     0.815000000000     0.665900000000     0.0168257  
H        H      0.043700000000     0.756200000000     0.282200000000     0.0168257  
H        H      0.046300000000     0.685000000000     0.165900000000     0.0168257  
C        C      0.424000000000     0.758600000000     0.758700000000     0.0574725  
C        C      0.425700000000     0.802300000000     0.689200000000     0.0574725  
C        C      0.576000000000     0.741400000000     0.258700000000     0.0574725  
C        C      0.574300000000     0.697700000000     0.189200000000     0.0574725  
C        C      0.924000000000     0.241400000000     0.241300000000     0.0574725  
C        C      0.925700000000     0.197700000000     0.310800000000     0.0574725  
C        C      0.076000000000     0.258600000000     0.741300000000     0.0574725  
C        C      0.074300000000     0.302300000000     0.810800000000     0.0574725  
C        C      0.576000000000     0.241400000000     0.241300000000     0.0574725  
C        C      0.574300000000     0.197700000000     0.310800000000     0.0574725  
C        C      0.424000000000     0.258600000000     0.741300000000     0.0574725  
C        C      0.425700000000     0.302300000000     0.810800000000     0.0574725  
C        C      0.076000000000     0.758600000000     0.758700000000     0.0574725  
C        C      0.074300000000     0.802300000000     0.689200000000     0.0574725  
C        C      0.924000000000     0.741400000000     0.258700000000     0.0574725  
C        C      0.925700000000     0.697700000000     0.189200000000     0.0574725  
C        C      0.250000000000     0.693700000000     0.871400000000     0.0574725  
C        C      0.250000000000     0.736600000000     0.793700000000     0.0574725  
C        C      0.250000000000     0.827400000000     0.653600000000     0.0574725  
C        C      0.250000000000     0.883100000000     0.580700000000     0.0574725  
C        C      0.750000000000     0.806300000000     0.371400000000     0.0574725  
C        C      0.750000000000     0.763400000000     0.293700000000     0.0574725  
C        C      0.750000000000     0.672600000000     0.153600000000     0.0574725  
C        C      0.750000000000     0.616900000000     0.080700000000     0.0574725  
C        C      0.750000000000     0.306300000000     0.128600000000     0.0574725  
C        C      0.750000000000     0.263400000000     0.206300000000     0.0574725  
C        C      0.750000000000     0.172600000000     0.346400000000     0.0574725  
C        C      0.750000000000     0.116900000000     0.419300000000     0.0574725  
C        C      0.250000000000     0.193700000000     0.628600000000     0.0574725  
C        C      0.250000000000     0.236600000000     0.706300000000     0.0574725  
C        C      0.250000000000     0.327400000000     0.846400000000     0.0574725  
C        C      0.250000000000     0.383100000000     0.919300000000     0.0574725  
O        O      0.088100000000     0.678400000000     0.902930000000    -0.455427   
O        O      0.087700000000     0.909800000000     0.551090000000    -0.455427   
O        O      0.911900000000     0.821600000000     0.402930000000    -0.455427   
O        O      0.912300000000     0.590200000000     0.051090000000    -0.455427   
O        O      0.588100000000     0.321600000000     0.097070000000    -0.455427   
O        O      0.587700000000     0.090200000000     0.448910000000    -0.455427   
O        O      0.411900000000     0.178400000000     0.597070000000    -0.455427   
O        O      0.412300000000     0.409800000000     0.948910000000    -0.455427   
O        O      0.911900000000     0.321600000000     0.097070000000    -0.455427   
O        O      0.912300000000     0.090200000000     0.448910000000    -0.455427   
O        O      0.088100000000     0.178400000000     0.597070000000    -0.455427   
O        O      0.087700000000     0.409800000000     0.948910000000    -0.455427   
O        O      0.411900000000     0.678400000000     0.902930000000    -0.455427   
O        O      0.412300000000     0.909800000000     0.551090000000    -0.455427   
O        O      0.588100000000     0.821600000000     0.402930000000    -0.455427   
O        O      0.587700000000     0.590200000000     0.051090000000    -0.455427   


