data_OSAVUA_original

_audit_creation_method RASPA-1.0
_audit_creation_date 2022-1-28
_audit_author_name 'Felipe Lopes de Oliveira <felipe.lopes.oliveira@ibm.com>'

_cell_length_a    9.665
_cell_length_b    10.2569
_cell_length_c    10.3455
_cell_angle_alpha 119.717
_cell_angle_beta  94.5181
_cell_angle_gamma 90
_cell_volume      887.029

_symmetry_cell_setting          triclinic
_symmetry_space_group_name_Hall 'P 1'
_symmetry_space_group_name_H-M  'P 1'
_symmetry_Int_Tables_number     1

_symmetry_equiv_pos_as_xyz 'x,y,z'

loop_
_atom_site_label
_atom_site_type_symbol
_atom_site_fract_x
_atom_site_fract_y
_atom_site_fract_z
_atom_site_charge
Ca       Ca     0.750000000000     0.078250000000     0.000000000000     1.32518    
Ca       Ca     0.250000000000     0.921750000000     0.000000000000     1.32518    
H        H      0.741300000000     0.045100000000     0.324200000000     0.165697   
H        H      0.188900000000     0.968300000000     0.365200000000     0.165697   
H        H      0.758700000000     0.720900000000     0.675800000000     0.165697   
H        H      0.311100000000     0.603100000000     0.634800000000     0.165697   
H        H      0.258700000000     0.954900000000     0.675800000000     0.165697   
H        H      0.811100000000     0.031700000000     0.634800000000     0.165697   
H        H      0.241300000000     0.279100000000     0.324200000000     0.165697   
H        H      0.688900000000     0.396900000000     0.365200000000     0.165697   
C        C      0.970800000000     0.004470000000     0.220340000000     0.106583   
C        C      0.984200000000     0.003410000000     0.366020000000     0.106583   
C        C      0.869400000000     0.023760000000     0.448520000000     0.106583   
C        C      0.112700000000     0.980750000000     0.419300000000     0.106583   
C        C      0.529200000000     0.784130000000     0.779660000000     0.106583   
C        C      0.515800000000     0.637390000000     0.633980000000     0.106583   
C        C      0.630600000000     0.575240000000     0.551480000000     0.106583   
C        C      0.387300000000     0.561450000000     0.580700000000     0.106583   
C        C      0.029200000000     0.995530000000     0.779660000000     0.106583   
C        C      0.015800000000     0.996590000000     0.633980000000     0.106583   
C        C      0.130600000000     0.976240000000     0.551480000000     0.106583   
C        C      0.887300000000     0.019250000000     0.580700000000     0.106583   
C        C      0.470800000000     0.215870000000     0.220340000000     0.106583   
C        C      0.484200000000     0.362610000000     0.366020000000     0.106583   
C        C      0.369400000000     0.424760000000     0.448520000000     0.106583   
C        C      0.612700000000     0.438550000000     0.419300000000     0.106583   
O        O      0.849000000000     0.012490000000     0.170580000000    -0.473439   
O        O      0.740700000000     0.049840000000     0.405680000000    -0.473439   
O        O      0.075840000000     0.993780000000     0.156160000000    -0.473439   
O        O      0.651000000000     0.841910000000     0.829420000000    -0.473439   
O        O      0.759300000000     0.644160000000     0.594320000000    -0.473439   
O        O      0.424160000000     0.837620000000     0.843840000000    -0.473439   
O        O      0.151000000000     0.987510000000     0.829420000000    -0.473439   
O        O      0.259300000000     0.950160000000     0.594320000000    -0.473439   
O        O      0.924160000000     0.006220000000     0.843840000000    -0.473439   
O        O      0.349000000000     0.158090000000     0.170580000000    -0.473439   
O        O      0.240700000000     0.355840000000     0.405680000000    -0.473439   
O        O      0.575840000000     0.162380000000     0.156160000000    -0.473439   


