data_OSAXAI_original

_audit_creation_method RASPA-1.0
_audit_creation_date 2022-1-29
_audit_author_name 'Felipe Lopes de Oliveira <felipe.lopes.oliveira@ibm.com>'

_cell_length_a    11.436
_cell_length_b    13.3716
_cell_length_c    18.386
_cell_angle_alpha 100.389
_cell_angle_beta  90
_cell_angle_gamma 115.316
_cell_volume      2490.44

_symmetry_cell_setting          triclinic
_symmetry_space_group_name_Hall 'P 1'
_symmetry_space_group_name_H-M  'P 1'
_symmetry_Int_Tables_number     1

_symmetry_equiv_pos_as_xyz 'x,y,z'

loop_
_atom_site_label
_atom_site_type_symbol
_atom_site_fract_x
_atom_site_fract_y
_atom_site_fract_z
_atom_site_charge
Zn       Zn     0.580730000000     0.606980000000     0.596810000000     0.459939   
Zn       Zn     0.973750000000     0.393020000000     0.903190000000     0.459939   
Zn       Zn     0.419270000000     0.393020000000     0.403190000000     0.459939   
Zn       Zn     0.026250000000     0.606980000000     0.096810000000     0.459939   
H        H      0.503500000000     0.348400000000     0.695200000000     0.0576221  
H        H      0.440500000000     0.207000000000     0.762600000000     0.0576221  
H        H      0.232100000000     0.981200000000     0.581600000000     0.0576221  
H        H      0.292100000000     0.124200000000     0.514400000000     0.0576221  
H        H      0.485800000000     0.671400000000     0.869500000000     0.0576221  
H        H      0.454800000000     0.795800000000     0.963200000000     0.0576221  
H        H      0.626300000000     0.043000000000     0.852600000000     0.0576221  
H        H      0.650300000000     0.916800000000     0.757600000000     0.0576221  
H        H      0.844100000000     0.704400000000     0.522500000000     0.0576221  
H        H      0.045600000000     0.706400000000     0.525600000000     0.0576221  
H        H      0.945700000000     0.531600000000     0.688700000000     0.0576221  
H        H      0.748100000000     0.535400000000     0.682100000000     0.0576221  
H        H      0.252600000000     0.761600000000     0.578100000000     0.0576221  
H        H      0.442300000000     0.745000000000     0.571200000000     0.0576221  
H        H      0.286300000000     0.454400000000     0.629300000000     0.0576221  
H        H      0.090500000000     0.461600000000     0.638800000000     0.0576221  
H        H      0.155100000000     0.651600000000     0.804800000000     0.0576221  
H        H      0.233500000000     0.793000000000     0.737400000000     0.0576221  
H        H      0.250900000000     0.018800000000     0.918400000000     0.0576221  
H        H      0.167900000000     0.875800000000     0.985600000000     0.0576221  
H        H      0.814400000000     0.328600000000     0.630500000000     0.0576221  
H        H      0.659000000000     0.204200000000     0.536800000000     0.0576221  
H        H      0.583300000000     0.957000000000     0.647400000000     0.0576221  
H        H      0.733500000000     0.083200000000     0.742400000000     0.0576221  
H        H      0.139700000000     0.295600000000     0.977500000000     0.0576221  
H        H      0.339200000000     0.293600000000     0.974400000000     0.0576221  
H        H      0.414100000000     0.468400000000     0.811300000000     0.0576221  
H        H      0.212700000000     0.464600000000     0.817900000000     0.0576221  
H        H      0.491000000000     0.238400000000     0.921900000000     0.0576221  
H        H      0.697300000000     0.255000000000     0.928800000000     0.0576221  
H        H      0.831900000000     0.545600000000     0.870700000000     0.0576221  
H        H      0.628900000000     0.538400000000     0.861200000000     0.0576221  
H        H      0.496500000000     0.651600000000     0.304800000000     0.0576221  
H        H      0.559500000000     0.793000000000     0.237400000000     0.0576221  
H        H      0.767900000000     0.018800000000     0.418400000000     0.0576221  
H        H      0.707900000000     0.875800000000     0.485600000000     0.0576221  
H        H      0.514200000000     0.328600000000     0.130500000000     0.0576221  
H        H      0.545200000000     0.204200000000     0.036800000000     0.0576221  
H        H      0.373700000000     0.957000000000     0.147400000000     0.0576221  
H        H      0.349700000000     0.083200000000     0.242400000000     0.0576221  
H        H      0.155900000000     0.295600000000     0.477500000000     0.0576221  
H        H      0.954400000000     0.293600000000     0.474400000000     0.0576221  
H        H      0.054300000000     0.468400000000     0.311300000000     0.0576221  
H        H      0.251900000000     0.464600000000     0.317900000000     0.0576221  
H        H      0.747400000000     0.238400000000     0.421900000000     0.0576221  
H        H      0.557700000000     0.255000000000     0.428800000000     0.0576221  
H        H      0.713700000000     0.545600000000     0.370700000000     0.0576221  
H        H      0.909500000000     0.538400000000     0.361200000000     0.0576221  
H        H      0.844900000000     0.348400000000     0.195200000000     0.0576221  
H        H      0.766500000000     0.207000000000     0.262600000000     0.0576221  
H        H      0.749100000000     0.981200000000     0.081600000000     0.0576221  
H        H      0.832100000000     0.124200000000     0.014400000000     0.0576221  
H        H      0.185600000000     0.671400000000     0.369500000000     0.0576221  
H        H      0.341000000000     0.795800000000     0.463200000000     0.0576221  
H        H      0.416700000000     0.043000000000     0.352600000000     0.0576221  
H        H      0.266500000000     0.916800000000     0.257600000000     0.0576221  
H        H      0.860300000000     0.704400000000     0.022500000000     0.0576221  
H        H      0.660800000000     0.706400000000     0.025600000000     0.0576221  
H        H      0.585900000000     0.531600000000     0.188700000000     0.0576221  
H        H      0.787300000000     0.535400000000     0.182100000000     0.0576221  
H        H      0.509000000000     0.761600000000     0.078100000000     0.0576221  
H        H      0.302700000000     0.745000000000     0.071200000000     0.0576221  
H        H      0.168100000000     0.454400000000     0.129300000000     0.0576221  
H        H      0.371100000000     0.461600000000     0.138800000000     0.0576221  
C        C      0.437350000000     0.344500000000     0.556070000000     0.0131627  
C        C      0.401340000000     0.251280000000     0.598760000000     0.0131627  
C        C      0.447420000000     0.274840000000     0.672660000000     0.0131627  
C        C      0.410920000000     0.190440000000     0.712780000000     0.0131627  
C        C      0.329320000000     0.079840000000     0.678400000000     0.0131627  
C        C      0.285610000000     0.055220000000     0.604570000000     0.0131627  
C        C      0.321500000000     0.140800000000     0.564290000000     0.0131627  
C        C      0.585550000000     0.700100000000     0.739120000000     0.0131627  
C        C      0.570970000000     0.781540000000     0.803180000000     0.0131627  
C        C      0.513370000000     0.746340000000     0.865400000000     0.0131627  
C        C      0.495720000000     0.821040000000     0.921900000000     0.0131627  
C        C      0.538450000000     0.932300000000     0.917130000000     0.0131627  
C        C      0.596580000000     0.967760000000     0.856200000000     0.0131627  
C        C      0.611540000000     0.891680000000     0.799400000000     0.0131627  
C        C      0.864660000000     0.668920000000     0.556190000000     0.0131627  
C        C      0.986020000000     0.670040000000     0.557500000000     0.0131627  
C        C      0.018840000000     0.616680000000     0.606770000000     0.0131627  
C        C      0.927110000000     0.566820000000     0.654080000000     0.0131627  
C        C      0.808420000000     0.569440000000     0.649830000000     0.0131627  
C        C      0.145580000000     0.610960000000     0.606440000000     0.0131627  
C        C      0.256030000000     0.696860000000     0.587800000000     0.0131627  
C        C      0.369910000000     0.686220000000     0.583700000000     0.0131627  
C        C      0.278560000000     0.516320000000     0.617800000000     0.0131627  
C        C      0.159990000000     0.519780000000     0.623600000000     0.0131627  
C        C      0.092850000000     0.655500000000     0.943930000000     0.0131627  
C        C      0.150060000000     0.748720000000     0.901240000000     0.0131627  
C        C      0.172580000000     0.725160000000     0.827340000000     0.0131627  
C        C      0.220480000000     0.809560000000     0.787220000000     0.0131627  
C        C      0.249480000000     0.920160000000     0.821600000000     0.0131627  
C        C      0.230390000000     0.944780000000     0.895430000000     0.0131627  
C        C      0.180700000000     0.859200000000     0.935710000000     0.0131627  
C        C      0.885450000000     0.299900000000     0.760880000000     0.0131627  
C        C      0.789430000000     0.218460000000     0.696820000000     0.0131627  
C        C      0.767030000000     0.253660000000     0.634600000000     0.0131627  
C        C      0.674680000000     0.178960000000     0.578100000000     0.0131627  
C        C      0.606150000000     0.067700000000     0.582870000000     0.0131627  
C        C      0.628820000000     0.032240000000     0.643800000000     0.0131627  
C        C      0.719860000000     0.108320000000     0.700600000000     0.0131627  
C        C      0.195740000000     0.331080000000     0.943810000000     0.0131627  
C        C      0.315980000000     0.329960000000     0.942500000000     0.0131627  
C        C      0.402160000000     0.383320000000     0.893230000000     0.0131627  
C        C      0.360290000000     0.433180000000     0.845920000000     0.0131627  
C        C      0.238980000000     0.430560000000     0.850170000000     0.0131627  
C        C      0.534620000000     0.389040000000     0.893560000000     0.0131627  
C        C      0.559170000000     0.303140000000     0.912200000000     0.0131627  
C        C      0.683690000000     0.313780000000     0.916300000000     0.0131627  
C        C      0.762240000000     0.483680000000     0.882200000000     0.0131627  
C        C      0.640210000000     0.480220000000     0.876400000000     0.0131627  
C        C      0.562650000000     0.655500000000     0.443930000000     0.0131627  
C        C      0.598660000000     0.748720000000     0.401240000000     0.0131627  
C        C      0.552580000000     0.725160000000     0.327340000000     0.0131627  
C        C      0.589080000000     0.809560000000     0.287220000000     0.0131627  
C        C      0.670680000000     0.920160000000     0.321600000000     0.0131627  
C        C      0.714390000000     0.944780000000     0.395430000000     0.0131627  
C        C      0.678500000000     0.859200000000     0.435710000000     0.0131627  
C        C      0.414450000000     0.299900000000     0.260880000000     0.0131627  
C        C      0.429030000000     0.218460000000     0.196820000000     0.0131627  
C        C      0.486630000000     0.253660000000     0.134600000000     0.0131627  
C        C      0.504280000000     0.178960000000     0.078100000000     0.0131627  
C        C      0.461550000000     0.067700000000     0.082870000000     0.0131627  
C        C      0.403420000000     0.032240000000     0.143800000000     0.0131627  
C        C      0.388460000000     0.108320000000     0.200600000000     0.0131627  
C        C      0.135340000000     0.331080000000     0.443810000000     0.0131627  
C        C      0.013980000000     0.329960000000     0.442500000000     0.0131627  
C        C      0.981160000000     0.383320000000     0.393230000000     0.0131627  
C        C      0.072890000000     0.433180000000     0.345920000000     0.0131627  
C        C      0.191580000000     0.430560000000     0.350170000000     0.0131627  
C        C      0.854420000000     0.389040000000     0.393560000000     0.0131627  
C        C      0.743970000000     0.303140000000     0.412200000000     0.0131627  
C        C      0.630090000000     0.313780000000     0.416300000000     0.0131627  
C        C      0.721440000000     0.483680000000     0.382200000000     0.0131627  
C        C      0.840010000000     0.480220000000     0.376400000000     0.0131627  
C        C      0.907150000000     0.344500000000     0.056070000000     0.0131627  
C        C      0.849940000000     0.251280000000     0.098760000000     0.0131627  
C        C      0.827420000000     0.274840000000     0.172660000000     0.0131627  
C        C      0.779520000000     0.190440000000     0.212780000000     0.0131627  
C        C      0.750520000000     0.079840000000     0.178400000000     0.0131627  
C        C      0.769610000000     0.055220000000     0.104570000000     0.0131627  
C        C      0.819300000000     0.140800000000     0.064290000000     0.0131627  
C        C      0.114550000000     0.700100000000     0.239120000000     0.0131627  
C        C      0.210570000000     0.781540000000     0.303180000000     0.0131627  
C        C      0.232970000000     0.746340000000     0.365400000000     0.0131627  
C        C      0.325320000000     0.821040000000     0.421900000000     0.0131627  
C        C      0.393850000000     0.932300000000     0.417130000000     0.0131627  
C        C      0.371180000000     0.967760000000     0.356200000000     0.0131627  
C        C      0.280140000000     0.891680000000     0.299400000000     0.0131627  
C        C      0.804260000000     0.668920000000     0.056190000000     0.0131627  
C        C      0.684020000000     0.670040000000     0.057500000000     0.0131627  
C        C      0.597840000000     0.616680000000     0.106770000000     0.0131627  
C        C      0.639710000000     0.566820000000     0.154080000000     0.0131627  
C        C      0.761020000000     0.569440000000     0.149830000000     0.0131627  
C        C      0.465380000000     0.610960000000     0.106440000000     0.0131627  
C        C      0.440830000000     0.696860000000     0.087800000000     0.0131627  
C        C      0.316310000000     0.686220000000     0.083700000000     0.0131627  
C        C      0.237760000000     0.516320000000     0.117800000000     0.0131627  
C        C      0.359790000000     0.519780000000     0.123600000000     0.0131627  
N        N      0.775550000000     0.618900000000     0.601270000000    -0.127575   
N        N      0.382580000000     0.596160000000     0.596720000000    -0.127575   
N        N      0.282650000000     0.985900000000     0.715390000000    -0.127575   
N        N      0.525260000000     0.018120000000     0.972590000000    -0.127575   
N        N      0.156650000000     0.381100000000     0.898730000000    -0.127575   
N        N      0.786420000000     0.403840000000     0.903280000000    -0.127575   
N        N      0.296750000000     0.014100000000     0.784610000000    -0.127575   
N        N      0.507140000000     0.981880000000     0.527410000000    -0.127575   
N        N      0.224450000000     0.381100000000     0.398730000000    -0.127575   
N        N      0.617420000000     0.403840000000     0.403280000000    -0.127575   
N        N      0.717350000000     0.014100000000     0.284610000000    -0.127575   
N        N      0.474740000000     0.981880000000     0.027410000000    -0.127575   
N        N      0.843350000000     0.618900000000     0.101270000000    -0.127575   
N        N      0.213580000000     0.596160000000     0.096720000000    -0.127575   
N        N      0.703250000000     0.985900000000     0.215390000000    -0.127575   
N        N      0.492860000000     0.018120000000     0.472590000000    -0.127575   
O        O      0.517170000000     0.440540000000     0.587990000000    -0.296874   
O        O      0.556780000000     0.602360000000     0.744800000000    -0.296874   
O        O      0.624310000000     0.739160000000     0.680890000000    -0.296874   
O        O      0.384080000000     0.318600000000     0.491160000000    -0.296874   
O        O      0.076630000000     0.559460000000     0.912010000000    -0.296874   
O        O      0.954420000000     0.397640000000     0.755200000000    -0.296874   
O        O      0.885150000000     0.260840000000     0.819110000000    -0.296874   
O        O      0.065480000000     0.681400000000     0.008840000000    -0.296874   
O        O      0.482830000000     0.559460000000     0.412010000000    -0.296874   
O        O      0.443220000000     0.397640000000     0.255200000000    -0.296874   
O        O      0.375690000000     0.260840000000     0.319110000000    -0.296874   
O        O      0.615920000000     0.681400000000     0.508840000000    -0.296874   
O        O      0.923370000000     0.440540000000     0.087990000000    -0.296874   
O        O      0.045580000000     0.602360000000     0.244800000000    -0.296874   
O        O      0.114850000000     0.739160000000     0.180890000000    -0.296874   
O        O      0.934520000000     0.318600000000     0.991160000000    -0.296874   


