data_OSOMIT_original

_audit_creation_method RASPA-1.0
_audit_creation_date 2022-1-29
_audit_author_name 'Felipe Lopes de Oliveira <felipe.lopes.oliveira@ibm.com>'

_cell_length_a    10.721
_cell_length_b    13.018
_cell_length_c    15.183
_cell_angle_alpha 95.599
_cell_angle_beta  108.01
_cell_angle_gamma 104.702
_cell_volume      1913.2

_symmetry_cell_setting          triclinic
_symmetry_space_group_name_Hall 'P 1'
_symmetry_space_group_name_H-M  'P 1'
_symmetry_Int_Tables_number     1

_symmetry_equiv_pos_as_xyz 'x,y,z'

loop_
_atom_site_label
_atom_site_type_symbol
_atom_site_fract_x
_atom_site_fract_y
_atom_site_fract_z
_atom_site_charge
Zn       Zn     0.582280000000     0.079580000000     0.656210000000     0.436332   
Zn       Zn     0.748170000000     0.367970000000     0.916080000000     0.436332   
Zn       Zn     0.418310000000     0.541130000000     0.837320000000     0.436332   
Zn       Zn     0.417720000000     0.920420000000     0.343790000000     0.436332   
Zn       Zn     0.251830000000     0.632030000000     0.083920000000     0.436332   
Zn       Zn     0.581690000000     0.458870000000     0.162680000000     0.436332   
H        H      0.852300000000     0.431800000000     0.665800000000     0.0948496  
H        H      0.694700000000     0.377800000000     0.612700000000     0.0948496  
H        H      0.058500000000     0.332600000000     0.859000000000     0.0948496  
H        H      0.165900000000     0.298300000000     0.936800000000     0.0948496  
H        H      0.636800000000     0.274200000000     0.475400000000     0.0948496  
H        H      0.753000000000     0.248600000000     0.443500000000     0.0948496  
H        H      0.051100000000     0.040300000000     0.389800000000     0.0948496  
H        H      0.932800000000     0.064900000000     0.419300000000     0.0948496  
H        H      0.263000000000     0.089500000000     0.610000000000     0.0948496  
H        H      0.239700000000     0.043000000000     0.505200000000     0.0948496  
H        H      0.300400000000     0.194000000000     0.808200000000     0.0948496  
H        H      0.325800000000     0.241700000000     0.912800000000     0.0948496  
H        H      0.883400000000     0.684300000000     0.815700000000     0.0948496  
H        H      0.015100000000     0.594400000000     0.910000000000     0.0948496  
H        H      0.159700000000     0.420200000000     0.492800000000     0.0948496  
H        H      0.184100000000     0.622800000000     0.764000000000     0.0948496  
H        H      0.050200000000     0.033000000000     0.840600000000     0.0948496  
H        H      0.260200000000     0.865000000000     0.077700000000     0.0948496  
H        H      0.335000000000     0.440000000000     0.633600000000     0.0948496  
H        H      0.138500000000     0.964100000000     0.988300000000     0.0948496  
H        H      0.004900000000     0.606800000000     0.628200000000     0.0948496  
H        H      0.728100000000     0.774800000000     0.803700000000     0.0948496  
H        H      0.899300000000     0.117700000000     0.760000000000     0.0948496  
H        H      0.585800000000     0.866500000000     0.721400000000     0.0948496  
H        H      0.147700000000     0.568200000000     0.334200000000     0.0948496  
H        H      0.305300000000     0.622200000000     0.387300000000     0.0948496  
H        H      0.941500000000     0.667400000000     0.141000000000     0.0948496  
H        H      0.834100000000     0.701700000000     0.063200000000     0.0948496  
H        H      0.363200000000     0.725800000000     0.524600000000     0.0948496  
H        H      0.247000000000     0.751400000000     0.556500000000     0.0948496  
H        H      0.948900000000     0.959700000000     0.610200000000     0.0948496  
H        H      0.067200000000     0.935100000000     0.580700000000     0.0948496  
H        H      0.737000000000     0.910500000000     0.390000000000     0.0948496  
H        H      0.760300000000     0.957000000000     0.494800000000     0.0948496  
H        H      0.699600000000     0.806000000000     0.191800000000     0.0948496  
H        H      0.674200000000     0.758300000000     0.087200000000     0.0948496  
H        H      0.116600000000     0.315700000000     0.184300000000     0.0948496  
H        H      0.984900000000     0.405600000000     0.090000000000     0.0948496  
H        H      0.840300000000     0.579800000000     0.507200000000     0.0948496  
H        H      0.815900000000     0.377200000000     0.236000000000     0.0948496  
H        H      0.949800000000     0.967000000000     0.159400000000     0.0948496  
H        H      0.739800000000     0.135000000000     0.922300000000     0.0948496  
H        H      0.665000000000     0.560000000000     0.366400000000     0.0948496  
H        H      0.861500000000     0.035900000000     0.011700000000     0.0948496  
H        H      0.995100000000     0.393200000000     0.371800000000     0.0948496  
H        H      0.271900000000     0.225200000000     0.196300000000     0.0948496  
H        H      0.100700000000     0.882300000000     0.240000000000     0.0948496  
H        H      0.414200000000     0.133500000000     0.278600000000     0.0948496  
C        C      0.779300000000     0.363700000000     0.647200000000     0.034911   
C        C      0.764900000000     0.325800000000     0.736200000000     0.034911   
C        C      0.128200000000     0.278600000000     0.727000000000     0.034911   
C        C      0.081100000000     0.190600000000     0.579500000000     0.034911   
C        C      0.930800000000     0.267600000000     0.611600000000     0.034911   
C        C      0.156100000000     0.344500000000     0.890300000000     0.034911   
C        C      0.707600000000     0.238200000000     0.489600000000     0.034911   
C        C      0.025200000000     0.096800000000     0.419800000000     0.034911   
C        C      0.247000000000     0.106800000000     0.547500000000     0.034911   
C        C      0.639000000000     0.117400000000     0.478300000000     0.034911   
C        C      0.463400000000     0.325000000000     0.862900000000     0.034911   
C        C      0.323900000000     0.260900000000     0.852300000000     0.034911   
C        C      0.220300000000     0.461000000000     0.941600000000     0.034911   
C        C      0.369300000000     0.196900000000     0.550400000000     0.034911   
C        C      0.021800000000     0.183900000000     0.360300000000     0.034911   
C        C      0.959200000000     0.722900000000     0.868400000000     0.034911   
C        C      0.058400000000     0.507900000000     0.544900000000     0.034911   
C        C      0.038700000000     0.669300000000     0.926100000000     0.034911   
C        C      0.161600000000     0.460400000000     0.547500000000     0.034911   
C        C      0.177900000000     0.580700000000     0.708800000000     0.034911   
C        C      0.904400000000     0.894500000000     0.833600000000     0.034911   
C        C      0.956100000000     0.998100000000     0.818100000000     0.034911   
C        C      0.183400000000     0.828900000000     0.024800000000     0.034911   
C        C      0.267400000000     0.473300000000     0.632300000000     0.034911   
C        C      0.110800000000     0.889100000000     0.971200000000     0.034911   
C        C      0.994900000000     0.835500000000     0.890800000000     0.034911   
C        C      0.069800000000     0.571200000000     0.627600000000     0.034911   
C        C      0.765200000000     0.844600000000     0.796000000000     0.034911   
C        C      0.864300000000     0.047700000000     0.768400000000     0.034911   
C        C      0.680200000000     0.900300000000     0.746100000000     0.034911   
C        C      0.220700000000     0.636300000000     0.352800000000     0.034911   
C        C      0.235100000000     0.674200000000     0.263800000000     0.034911   
C        C      0.871800000000     0.721400000000     0.273000000000     0.034911   
C        C      0.918900000000     0.809400000000     0.420500000000     0.034911   
C        C      0.069200000000     0.732400000000     0.388400000000     0.034911   
C        C      0.843900000000     0.655500000000     0.109700000000     0.034911   
C        C      0.292400000000     0.761800000000     0.510400000000     0.034911   
C        C      0.974800000000     0.903200000000     0.580200000000     0.034911   
C        C      0.753000000000     0.893200000000     0.452500000000     0.034911   
C        C      0.361000000000     0.882600000000     0.521700000000     0.034911   
C        C      0.536600000000     0.675000000000     0.137100000000     0.034911   
C        C      0.676100000000     0.739100000000     0.147700000000     0.034911   
C        C      0.779700000000     0.539000000000     0.058400000000     0.034911   
C        C      0.630700000000     0.803100000000     0.449600000000     0.034911   
C        C      0.978200000000     0.816100000000     0.639700000000     0.034911   
C        C      0.040800000000     0.277100000000     0.131600000000     0.034911   
C        C      0.941600000000     0.492100000000     0.455100000000     0.034911   
C        C      0.961300000000     0.330700000000     0.073900000000     0.034911   
C        C      0.838400000000     0.539600000000     0.452500000000     0.034911   
C        C      0.822100000000     0.419300000000     0.291200000000     0.034911   
C        C      0.095600000000     0.105500000000     0.166400000000     0.034911   
C        C      0.043900000000     0.001900000000     0.181900000000     0.034911   
C        C      0.816600000000     0.171100000000     0.975200000000     0.034911   
C        C      0.732600000000     0.526700000000     0.367700000000     0.034911   
C        C      0.889200000000     0.110900000000     0.028800000000     0.034911   
C        C      0.005100000000     0.164500000000     0.109200000000     0.034911   
C        C      0.930200000000     0.428800000000     0.372400000000     0.034911   
C        C      0.234800000000     0.155400000000     0.204000000000     0.034911   
C        C      0.135700000000     0.952300000000     0.231600000000     0.034911   
C        C      0.319800000000     0.099700000000     0.253900000000     0.034911   
N        N      0.012300000000     0.307700000000     0.701400000000    -0.126926   
N        N      0.808600000000     0.290200000000     0.583500000000    -0.126926   
N        N      0.170300000000     0.222600000000     0.668800000000    -0.126926   
N        N      0.958400000000     0.208000000000     0.545800000000    -0.126926   
N        N      0.116700000000     0.131000000000     0.516900000000    -0.126926   
N        N      0.212500000000     0.310200000000     0.820200000000    -0.126926   
N        N      0.147100000000     0.720500000000     0.003400000000    -0.126926   
N        N      0.274900000000     0.531900000000     0.711600000000    -0.126926   
N        N      0.729500000000     0.001600000000     0.732200000000    -0.126926   
N        N      0.987700000000     0.692300000000     0.298600000000    -0.126926   
N        N      0.191400000000     0.709800000000     0.416500000000    -0.126926   
N        N      0.829700000000     0.777400000000     0.331200000000    -0.126926   
N        N      0.041600000000     0.792000000000     0.454200000000    -0.126926   
N        N      0.883300000000     0.869000000000     0.483100000000    -0.126926   
N        N      0.787500000000     0.689800000000     0.179800000000    -0.126926   
N        N      0.852900000000     0.279500000000     0.996600000000    -0.126926   
N        N      0.725100000000     0.468100000000     0.288400000000    -0.126926   
N        N      0.270500000000     0.998400000000     0.267800000000    -0.126926   
O        O      0.659400000000     0.072300000000     0.549200000000    -0.290865   
O        O      0.783800000000     0.405500000000     0.802800000000    -0.290865   
O        O      0.736500000000     0.231400000000     0.747200000000    -0.290865   
O        O      0.568900000000     0.069500000000     0.395400000000    -0.290865   
O        O      0.554500000000     0.278200000000     0.885500000000    -0.290865   
O        O      0.494300000000     0.420800000000     0.851200000000    -0.290865   
O        O      0.175200000000     0.484200000000     0.006600000000    -0.290865   
O        O      0.305900000000     0.530900000000     0.920800000000    -0.290865   
O        O      0.350800000000     0.272700000000     0.506800000000    -0.290865   
O        O      0.487900000000     0.191800000000     0.593500000000    -0.290865   
O        O      0.134200000000     0.264600000000     0.381600000000    -0.290865   
O        O      0.918800000000     0.177600000000     0.293800000000    -0.290865   
O        O      0.340600000000     0.927700000000     0.450800000000    -0.290865   
O        O      0.216200000000     0.594500000000     0.197200000000    -0.290865   
O        O      0.263500000000     0.768600000000     0.252800000000    -0.290865   
O        O      0.431100000000     0.930500000000     0.604600000000    -0.290865   
O        O      0.445500000000     0.721800000000     0.114500000000    -0.290865   
O        O      0.505700000000     0.579200000000     0.148800000000    -0.290865   
O        O      0.824800000000     0.515800000000     0.993400000000    -0.290865   
O        O      0.694100000000     0.469100000000     0.079200000000    -0.290865   
O        O      0.649200000000     0.727300000000     0.493200000000    -0.290865   
O        O      0.512100000000     0.808200000000     0.406500000000    -0.290865   
O        O      0.865800000000     0.735400000000     0.618400000000    -0.290865   
O        O      0.081200000000     0.822400000000     0.706200000000    -0.290865   


