data_OWAVOY_original

_audit_creation_method RASPA-1.0
_audit_creation_date 2022-1-28
_audit_author_name 'Felipe Lopes de Oliveira <felipe.lopes.oliveira@ibm.com>'

_cell_length_a    14.639
_cell_length_b    19.379
_cell_length_c    19.484
_cell_angle_alpha 116.046
_cell_angle_beta  90
_cell_angle_gamma 90
_cell_volume      4966.05

_symmetry_cell_setting          triclinic
_symmetry_space_group_name_Hall 'P 1'
_symmetry_space_group_name_H-M  'P 1'
_symmetry_Int_Tables_number     1

_symmetry_equiv_pos_as_xyz 'x,y,z'

loop_
_atom_site_label
_atom_site_type_symbol
_atom_site_fract_x
_atom_site_fract_y
_atom_site_fract_z
_atom_site_charge
Zn       Zn     0.231920000000     0.414060000000     0.751430000000     0.44589    
Zn       Zn     0.570770000000     0.510840000000     0.634250000000     0.44589    
Zn       Zn     0.637290000000     0.474380000000     0.781020000000     0.44589    
Zn       Zn     0.086950000000     0.967830000000     0.188550000000     0.44589    
Zn       Zn     0.201700000000     0.134560000000     0.820080000000     0.44589    
Zn       Zn     0.264200000000     0.068990000000     0.641120000000     0.44589    
Zn       Zn     0.731920000000     0.585940000000     0.248570000000     0.44589    
Zn       Zn     0.070770000000     0.489160000000     0.365750000000     0.44589    
Zn       Zn     0.137290000000     0.525620000000     0.218980000000     0.44589    
Zn       Zn     0.586950000000     0.032170000000     0.811450000000     0.44589    
Zn       Zn     0.701700000000     0.865440000000     0.179920000000     0.44589    
Zn       Zn     0.764200000000     0.931010000000     0.358880000000     0.44589    
H        H      0.615400000000     0.923900000000     0.964100000000     0.212562   
H        H      0.654800000000     0.709100000000     0.937200000000     0.212562   
H        H      0.387400000000     0.443100000000     0.865000000000     0.212562   
H        H      0.492600000000     0.426500000000     0.854900000000     0.212562   
H        H      0.422600000000     0.359900000000     0.812800000000     0.212562   
H        H      0.275300000000     0.466500000000     0.631900000000     0.212562   
H        H      0.333200000000     0.404000000000     0.566300000000     0.212562   
H        H      0.359100000000     0.491000000000     0.597500000000     0.212562   
H        H      0.911200000000     0.944000000000     0.078900000000     0.212562   
H        H      0.827000000000     0.891700000000     0.073000000000     0.212562   
H        H      0.926500000000     0.859700000000     0.067800000000     0.212562   
H        H      0.031700000000     0.996800000000     0.362400000000     0.212562   
H        H      0.940500000000     0.030000000000     0.407000000000     0.212562   
H        H      0.993800000000     0.075500000000     0.370100000000     0.212562   
H        H      0.139700000000     0.370700000000     0.882300000000     0.212562   
H        H      0.242400000000     0.369500000000     0.904500000000     0.212562   
H        H      0.173400000000     0.310000000000     0.909600000000     0.212562   
H        H      0.346400000000     0.229500000000     0.606000000000     0.212562   
H        H      0.270100000000     0.289900000000     0.615500000000     0.212562   
H        H      0.248200000000     0.201800000000     0.573500000000     0.212562   
H        H      0.894000000000     0.420200000000     0.704300000000     0.212562   
H        H      0.085100000000     0.424700000000     0.558000000000     0.212562   
H        H      0.820500000000     0.437200000000     0.513600000000     0.212562   
H        H      0.201700000000     0.534400000000     0.001600000000     0.212562   
H        H      0.166900000000     0.703800000000     0.936200000000     0.212562   
H        H      0.146500000000     0.745500000000     0.156200000000     0.212562   
H        H      0.592300000000     0.746100000000     0.758000000000     0.212562   
H        H      0.427800000000     0.949100000000     0.229300000000     0.212562   
H        H      0.506500000000     0.004400000000     0.442200000000     0.212562   
H        H      0.246700000000     0.018800000000     0.396800000000     0.212562   
H        H      0.115400000000     0.076100000000     0.035900000000     0.212562   
H        H      0.154800000000     0.290900000000     0.062800000000     0.212562   
H        H      0.887400000000     0.556900000000     0.135000000000     0.212562   
H        H      0.992600000000     0.573500000000     0.145100000000     0.212562   
H        H      0.922600000000     0.640100000000     0.187200000000     0.212562   
H        H      0.775300000000     0.533500000000     0.368100000000     0.212562   
H        H      0.833200000000     0.596000000000     0.433700000000     0.212562   
H        H      0.859100000000     0.509000000000     0.402500000000     0.212562   
H        H      0.411200000000     0.056000000000     0.921100000000     0.212562   
H        H      0.327000000000     0.108300000000     0.927000000000     0.212562   
H        H      0.426500000000     0.140300000000     0.932200000000     0.212562   
H        H      0.531700000000     0.003200000000     0.637600000000     0.212562   
H        H      0.440500000000     0.970000000000     0.593000000000     0.212562   
H        H      0.493800000000     0.924500000000     0.629900000000     0.212562   
H        H      0.639700000000     0.629300000000     0.117700000000     0.212562   
H        H      0.742400000000     0.630500000000     0.095500000000     0.212562   
H        H      0.673400000000     0.690000000000     0.090400000000     0.212562   
H        H      0.846400000000     0.770500000000     0.394000000000     0.212562   
H        H      0.770100000000     0.710100000000     0.384500000000     0.212562   
H        H      0.748200000000     0.798200000000     0.426500000000     0.212562   
H        H      0.394000000000     0.579800000000     0.295700000000     0.212562   
H        H      0.585100000000     0.575300000000     0.442000000000     0.212562   
H        H      0.320500000000     0.562800000000     0.486400000000     0.212562   
H        H      0.701700000000     0.465600000000     0.998400000000     0.212562   
H        H      0.666900000000     0.296200000000     0.063800000000     0.212562   
H        H      0.646500000000     0.254500000000     0.843800000000     0.212562   
H        H      0.092300000000     0.253900000000     0.242000000000     0.212562   
H        H      0.927800000000     0.050900000000     0.770700000000     0.212562   
H        H      0.006500000000     0.995600000000     0.557800000000     0.212562   
H        H      0.746700000000     0.981200000000     0.603200000000     0.212562   
C        C      0.583200000000     0.899000000000     0.819800000000    -0.00109863 
C        C      0.600600000000     0.841700000000     0.856000000000    -0.00109863 
C        C      0.617400000000     0.871400000000     0.932600000000    -0.00109863 
C        C      0.637100000000     0.819300000000     0.959900000000    -0.00109863 
C        C      0.640600000000     0.742200000000     0.915700000000    -0.00109863 
C        C      0.623400000000     0.714300000000     0.840400000000    -0.00109863 
C        C      0.623100000000     0.631500000000     0.791900000000    -0.00109863 
C        C      0.924400000000     0.984200000000     0.292100000000    -0.00109863 
C        C      0.889900000000     0.933200000000     0.178600000000    -0.00109863 
C        C      0.434300000000     0.413700000000     0.829900000000    -0.00109863 
C        C      0.434700000000     0.430700000000     0.766500000000    -0.00109863 
C        C      0.395400000000     0.445700000000     0.667900000000    -0.00109863 
C        C      0.335600000000     0.452000000000     0.611000000000    -0.00109863 
C        C      0.888500000000     0.904400000000     0.091400000000    -0.00109863 
C        C      0.977300000000     0.025300000000     0.364300000000    -0.00109863 
C        C      0.189700000000     0.338400000000     0.881500000000    -0.00109863 
C        C      0.211400000000     0.282900000000     0.799800000000    -0.00109863 
C        C      0.254900000000     0.241700000000     0.687900000000    -0.00109863 
C        C      0.282300000000     0.240600000000     0.614300000000    -0.00109863 
C        C      0.749100000000     0.442900000000     0.644500000000    -0.00109863 
C        C      0.842100000000     0.430000000000     0.614100000000    -0.00109863 
C        C      0.909600000000     0.421800000000     0.658800000000    -0.00109863 
C        C      0.999400000000     0.416000000000     0.637500000000    -0.00109863 
C        C      0.074300000000     0.412200000000     0.691300000000    -0.00109863 
C        C      0.024100000000     0.423300000000     0.570800000000    -0.00109863 
C        C      0.953100000000     0.428400000000     0.524400000000    -0.00109863 
C        C      0.979200000000     0.435200000000     0.451800000000    -0.00109863 
C        C      0.865900000000     0.432600000000     0.544800000000    -0.00109863 
C        C      0.159900000000     0.608000000000     0.147100000000    -0.00109863 
C        C      0.167700000000     0.634500000000     0.085500000000    -0.00109863 
C        C      0.186300000000     0.584700000000     0.012400000000    -0.00109863 
C        C      0.183500000000     0.606400000000     0.950100000000    -0.00109863 
C        C      0.202400000000     0.552400000000     0.872300000000    -0.00109863 
C        C      0.167100000000     0.685800000000     0.973300000000    -0.00109863 
C        C      0.152000000000     0.736200000000     0.046100000000    -0.00109863 
C        C      0.154200000000     0.710600000000     0.105300000000    -0.00109863 
C        C      0.132300000000     0.819300000000     0.070700000000    -0.00109863 
C        C      0.658800000000     0.852600000000     0.046700000000    -0.00109863 
C        C      0.603600000000     0.764700000000     0.810000000000    -0.00109863 
C        C      0.253800000000     0.973600000000     0.250400000000    -0.00109863 
C        C      0.324600000000     0.983800000000     0.303500000000    -0.00109863 
C        C      0.413500000000     0.966500000000     0.280700000000    -0.00109863 
C        C      0.483500000000     0.974200000000     0.332400000000    -0.00109863 
C        C      0.579000000000     0.950200000000     0.304800000000    -0.00109863 
C        C      0.460900000000     0.999200000000     0.407100000000    -0.00109863 
C        C      0.373500000000     0.017000000000     0.431700000000    -0.00109863 
C        C      0.354600000000     0.042700000000     0.514100000000    -0.00109863 
C        C      0.306800000000     0.008100000000     0.379900000000    -0.00109863 
C        C      0.083200000000     0.101000000000     0.180200000000    -0.00109863 
C        C      0.100600000000     0.158300000000     0.144000000000    -0.00109863 
C        C      0.117400000000     0.128600000000     0.067400000000    -0.00109863 
C        C      0.137100000000     0.180700000000     0.040100000000    -0.00109863 
C        C      0.140600000000     0.257800000000     0.084300000000    -0.00109863 
C        C      0.123400000000     0.285700000000     0.159600000000    -0.00109863 
C        C      0.123100000000     0.368500000000     0.208100000000    -0.00109863 
C        C      0.424400000000     0.015800000000     0.707900000000    -0.00109863 
C        C      0.389900000000     0.066800000000     0.821400000000    -0.00109863 
C        C      0.934300000000     0.586300000000     0.170100000000    -0.00109863 
C        C      0.934700000000     0.569300000000     0.233500000000    -0.00109863 
C        C      0.895400000000     0.554300000000     0.332100000000    -0.00109863 
C        C      0.835600000000     0.548000000000     0.389000000000    -0.00109863 
C        C      0.388500000000     0.095600000000     0.908600000000    -0.00109863 
C        C      0.477300000000     0.974700000000     0.635700000000    -0.00109863 
C        C      0.689700000000     0.661600000000     0.118500000000    -0.00109863 
C        C      0.711400000000     0.717100000000     0.200200000000    -0.00109863 
C        C      0.754900000000     0.758300000000     0.312100000000    -0.00109863 
C        C      0.782300000000     0.759400000000     0.385700000000    -0.00109863 
C        C      0.249100000000     0.557100000000     0.355500000000    -0.00109863 
C        C      0.342100000000     0.570000000000     0.385900000000    -0.00109863 
C        C      0.409600000000     0.578200000000     0.341200000000    -0.00109863 
C        C      0.499400000000     0.584000000000     0.362500000000    -0.00109863 
C        C      0.574300000000     0.587800000000     0.308700000000    -0.00109863 
C        C      0.524100000000     0.576700000000     0.429200000000    -0.00109863 
C        C      0.453100000000     0.571600000000     0.475600000000    -0.00109863 
C        C      0.479200000000     0.564800000000     0.548200000000    -0.00109863 
C        C      0.365900000000     0.567400000000     0.455200000000    -0.00109863 
C        C      0.659900000000     0.392000000000     0.852900000000    -0.00109863 
C        C      0.667700000000     0.365500000000     0.914500000000    -0.00109863 
C        C      0.686300000000     0.415300000000     0.987600000000    -0.00109863 
C        C      0.683500000000     0.393600000000     0.049900000000    -0.00109863 
C        C      0.702400000000     0.447600000000     0.127700000000    -0.00109863 
C        C      0.667100000000     0.314200000000     0.026700000000    -0.00109863 
C        C      0.652000000000     0.263800000000     0.953900000000    -0.00109863 
C        C      0.654200000000     0.289400000000     0.894700000000    -0.00109863 
C        C      0.632300000000     0.180700000000     0.929300000000    -0.00109863 
C        C      0.158800000000     0.147400000000     0.953300000000    -0.00109863 
C        C      0.103600000000     0.235300000000     0.190000000000    -0.00109863 
C        C      0.753800000000     0.026400000000     0.749600000000    -0.00109863 
C        C      0.824600000000     0.016200000000     0.696500000000    -0.00109863 
C        C      0.913500000000     0.033500000000     0.719300000000    -0.00109863 
C        C      0.983500000000     0.025800000000     0.667600000000    -0.00109863 
C        C      0.079000000000     0.049800000000     0.695200000000    -0.00109863 
C        C      0.960900000000     0.000800000000     0.592900000000    -0.00109863 
C        C      0.873500000000     0.983000000000     0.568300000000    -0.00109863 
C        C      0.854600000000     0.957300000000     0.485900000000    -0.00109863 
C        C      0.806800000000     0.991900000000     0.620100000000    -0.00109863 
N        N      0.954500000000     0.971300000000     0.225900000000    -0.217535   
N        N      0.813800000000     0.926800000000     0.216400000000    -0.217535   
N        N      0.839300000000     0.957400000000     0.290600000000    -0.217535   
N        N      0.484100000000     0.462600000000     0.678800000000    -0.217535   
N        N      0.509500000000     0.455500000000     0.741900000000    -0.217535   
N        N      0.363900000000     0.428300000000     0.722500000000    -0.217535   
N        N      0.220200000000     0.209200000000     0.773600000000    -0.217535   
N        N      0.246500000000     0.182700000000     0.701500000000    -0.217535   
N        N      0.231700000000     0.307500000000     0.747800000000    -0.217535   
N        N      0.454500000000     0.028700000000     0.774100000000    -0.217535   
N        N      0.313800000000     0.073200000000     0.783600000000    -0.217535   
N        N      0.339300000000     0.042600000000     0.709400000000    -0.217535   
N        N      0.984100000000     0.537400000000     0.321200000000    -0.217535   
N        N      0.009500000000     0.544500000000     0.258100000000    -0.217535   
N        N      0.863900000000     0.571700000000     0.277500000000    -0.217535   
N        N      0.720200000000     0.790800000000     0.226400000000    -0.217535   
N        N      0.746500000000     0.817300000000     0.298500000000    -0.217535   
N        N      0.731700000000     0.692500000000     0.252200000000    -0.217535   
O        O      0.596400000000     0.967100000000     0.864200000000    -0.293401   
O        O      0.603800000000     0.608100000000     0.718800000000    -0.293401   
O        O      0.732700000000     0.439700000000     0.704700000000    -0.293401   
O        O      0.687700000000     0.455200000000     0.603200000000    -0.293401   
O        O      0.050100000000     0.408600000000     0.748600000000    -0.293401   
O        O      0.154800000000     0.411800000000     0.667400000000    -0.293401   
O        O      0.930300000000     0.403600000000     0.395900000000    -0.293401   
O        O      0.047200000000     0.474700000000     0.455900000000    -0.293401   
O        O      0.148600000000     0.652000000000     0.212700000000    -0.293401   
O        O      0.167500000000     0.534700000000     0.124600000000    -0.293401   
O        O      0.222300000000     0.486600000000     0.859400000000    -0.293401   
O        O      0.194300000000     0.574500000000     0.823000000000    -0.293401   
O        O      0.092500000000     0.855600000000     0.131500000000    -0.293401   
O        O      0.149100000000     0.842900000000     0.020600000000    -0.293401   
O        O      0.562800000000     0.872300000000     0.753500000000    -0.293401   
O        O      0.639400000000     0.587200000000     0.820100000000    -0.293401   
O        O      0.676700000000     0.803800000000     0.071900000000    -0.293401   
O        O      0.660200000000     0.921900000000     0.084300000000    -0.293401   
O        O      0.172800000000     0.985800000000     0.272600000000    -0.293401   
O        O      0.272000000000     0.953700000000     0.181100000000    -0.293401   
O        O      0.275200000000     0.031900000000     0.532300000000    -0.293401   
O        O      0.408300000000     0.078800000000     0.564000000000    -0.293401   
O        O      0.638500000000     0.966100000000     0.356500000000    -0.293401   
O        O      0.591400000000     0.919700000000     0.236700000000    -0.293401   
O        O      0.096400000000     0.032900000000     0.135800000000    -0.293401   
O        O      0.103800000000     0.391900000000     0.281200000000    -0.293401   
O        O      0.232700000000     0.560300000000     0.295300000000    -0.293401   
O        O      0.187700000000     0.544800000000     0.396800000000    -0.293401   
O        O      0.550100000000     0.591400000000     0.251400000000    -0.293401   
O        O      0.654800000000     0.588200000000     0.332600000000    -0.293401   
O        O      0.430300000000     0.596400000000     0.604100000000    -0.293401   
O        O      0.547200000000     0.525300000000     0.544100000000    -0.293401   
O        O      0.648600000000     0.348000000000     0.787300000000    -0.293401   
O        O      0.667500000000     0.465300000000     0.875400000000    -0.293401   
O        O      0.722300000000     0.513400000000     0.140600000000    -0.293401   
O        O      0.694300000000     0.425500000000     0.177000000000    -0.293401   
O        O      0.592500000000     0.144400000000     0.868500000000    -0.293401   
O        O      0.649100000000     0.157100000000     0.979400000000    -0.293401   
O        O      0.062800000000     0.127700000000     0.246500000000    -0.293401   
O        O      0.139400000000     0.412800000000     0.179900000000    -0.293401   
O        O      0.176700000000     0.196200000000     0.928100000000    -0.293401   
O        O      0.160200000000     0.078100000000     0.915700000000    -0.293401   
O        O      0.672800000000     0.014200000000     0.727400000000    -0.293401   
O        O      0.772000000000     0.046300000000     0.818900000000    -0.293401   
O        O      0.775200000000     0.968100000000     0.467700000000    -0.293401   
O        O      0.908300000000     0.921200000000     0.436000000000    -0.293401   
O        O      0.138500000000     0.033900000000     0.643500000000    -0.293401   
O        O      0.091400000000     0.080300000000     0.763300000000    -0.293401   


