data_OYEBIE_original

_audit_creation_method RASPA-1.0
_audit_creation_date 2022-1-30
_audit_author_name 'Felipe Lopes de Oliveira <felipe.lopes.oliveira@ibm.com>'

_cell_length_a    9.4792
_cell_length_b    11.3658
_cell_length_c    22.1265
_cell_angle_alpha 102.434
_cell_angle_beta  90
_cell_angle_gamma 114.645
_cell_volume      2105.04

_symmetry_cell_setting          triclinic
_symmetry_space_group_name_Hall 'P 1'
_symmetry_space_group_name_H-M  'P 1'
_symmetry_Int_Tables_number     1

_symmetry_equiv_pos_as_xyz 'x,y,z'

loop_
_atom_site_label
_atom_site_type_symbol
_atom_site_fract_x
_atom_site_fract_y
_atom_site_fract_z
_atom_site_charge
Zn       Zn     0.412440000000     0.333500000000     0.379890000000     0.434295   
Zn       Zn     0.078940000000     0.666500000000     0.120110000000     0.434295   
Zn       Zn     0.587560000000     0.666500000000     0.620110000000     0.434295   
Zn       Zn     0.921060000000     0.333500000000     0.879890000000     0.434295   
H        H      0.568400000000     0.605000000000     0.454100000000     0.0688091  
H        H      0.802700000000     0.785200000000     0.475800000000     0.0688091  
H        H      0.975900000000     0.588400000000     0.352000000000     0.0688091  
H        H      0.737000000000     0.412000000000     0.333500000000     0.0688091  
H        H      0.089800000000     0.874800000000     0.472100000000     0.0688091  
H        H      0.155500000000     0.802000000000     0.419200000000     0.0688091  
H        H      0.177300000000     0.010800000000     0.405400000000     0.0688091  
H        H      0.994400000000     0.949600000000     0.395200000000     0.0688091  
H        H      0.874500000000     0.734000000000     0.199300000000     0.0688091  
H        H      0.868200000000     0.829000000000     0.298600000000     0.0688091  
H        H      0.311000000000     0.902600000000     0.329500000000     0.0688091  
H        H      0.307800000000     0.807400000000     0.229500000000     0.0688091  
H        H      0.863300000000     0.276200000000     0.455300000000     0.0688091  
H        H      0.257600000000     0.612000000000     0.483300000000     0.0688091  
H        H      0.564000000000     0.961400000000     0.401800000000     0.0688091  
H        H      0.439200000000     0.177000000000     0.536600000000     0.0688091  
H        H      0.963400000000     0.395000000000     0.045900000000     0.0688091  
H        H      0.017500000000     0.214800000000     0.024200000000     0.0688091  
H        H      0.387500000000     0.411600000000     0.148000000000     0.0688091  
H        H      0.325000000000     0.588000000000     0.166500000000     0.0688091  
H        H      0.215000000000     0.125200000000     0.027900000000     0.0688091  
H        H      0.353500000000     0.198000000000     0.080800000000     0.0688091  
H        H      0.166500000000     0.989200000000     0.094600000000     0.0688091  
H        H      0.044800000000     0.050400000000     0.104800000000     0.0688091  
H        H      0.140500000000     0.266000000000     0.300700000000     0.0688091  
H        H      0.039200000000     0.171000000000     0.201400000000     0.0688091  
H        H      0.408400000000     0.097400000000     0.170500000000     0.0688091  
H        H      0.500400000000     0.192600000000     0.270500000000     0.0688091  
H        H      0.587100000000     0.723800000000     0.044700000000     0.0688091  
H        H      0.645600000000     0.388000000000     0.016700000000     0.0688091  
H        H      0.602600000000     0.038600000000     0.098200000000     0.0688091  
H        H      0.262200000000     0.823000000000     0.963400000000     0.0688091  
H        H      0.431600000000     0.395000000000     0.545900000000     0.0688091  
H        H      0.197300000000     0.214800000000     0.524200000000     0.0688091  
H        H      0.024100000000     0.411600000000     0.648000000000     0.0688091  
H        H      0.263000000000     0.588000000000     0.666500000000     0.0688091  
H        H      0.910200000000     0.125200000000     0.527900000000     0.0688091  
H        H      0.844500000000     0.198000000000     0.580800000000     0.0688091  
H        H      0.822700000000     0.989200000000     0.594600000000     0.0688091  
H        H      0.005600000000     0.050400000000     0.604800000000     0.0688091  
H        H      0.125500000000     0.266000000000     0.800700000000     0.0688091  
H        H      0.131800000000     0.171000000000     0.701400000000     0.0688091  
H        H      0.689000000000     0.097400000000     0.670500000000     0.0688091  
H        H      0.692200000000     0.192600000000     0.770500000000     0.0688091  
H        H      0.136700000000     0.723800000000     0.544700000000     0.0688091  
H        H      0.742400000000     0.388000000000     0.516700000000     0.0688091  
H        H      0.436000000000     0.038600000000     0.598200000000     0.0688091  
H        H      0.560800000000     0.823000000000     0.463400000000     0.0688091  
H        H      0.036600000000     0.605000000000     0.954100000000     0.0688091  
H        H      0.982500000000     0.785200000000     0.975800000000     0.0688091  
H        H      0.612500000000     0.588400000000     0.852000000000     0.0688091  
H        H      0.675000000000     0.412000000000     0.833500000000     0.0688091  
H        H      0.785000000000     0.874800000000     0.972100000000     0.0688091  
H        H      0.646500000000     0.802000000000     0.919200000000     0.0688091  
H        H      0.833500000000     0.010800000000     0.905400000000     0.0688091  
H        H      0.955200000000     0.949600000000     0.895200000000     0.0688091  
H        H      0.859500000000     0.734000000000     0.699300000000     0.0688091  
H        H      0.960800000000     0.829000000000     0.798600000000     0.0688091  
H        H      0.591600000000     0.902600000000     0.829500000000     0.0688091  
H        H      0.499600000000     0.807400000000     0.729500000000     0.0688091  
H        H      0.412900000000     0.276200000000     0.955300000000     0.0688091  
H        H      0.354400000000     0.612000000000     0.983300000000     0.0688091  
H        H      0.397400000000     0.961400000000     0.901800000000     0.0688091  
H        H      0.737800000000     0.177000000000     0.036600000000     0.0688091  
C        C      0.651190000000     0.600980000000     0.432620000000     0.00211478 
C        C      0.792310000000     0.710020000000     0.445790000000     0.00211478 
C        C      0.918410000000     0.710420000000     0.415630000000     0.00211478 
C        C      0.894190000000     0.595180000000     0.373470000000     0.00211478 
C        C      0.749580000000     0.489160000000     0.362530000000     0.00211478 
C        C      0.073080000000     0.830760000000     0.428300000000     0.00211478 
C        C      0.083880000000     0.928960000000     0.390420000000     0.00211478 
C        C      0.964280000000     0.769160000000     0.226760000000     0.00211478 
C        C      0.959340000000     0.824680000000     0.285370000000     0.00211478 
C        C      0.088270000000     0.874540000000     0.325430000000     0.00211478 
C        C      0.219460000000     0.867520000000     0.303010000000     0.00211478 
C        C      0.217400000000     0.811400000000     0.243960000000     0.00211478 
C        C      0.918240000000     0.366680000000     0.473440000000     0.00211478 
C        C      0.072680000000     0.432960000000     0.463080000000     0.00211478 
C        C      0.153840000000     0.566880000000     0.490020000000     0.00211478 
C        C      0.150460000000     0.358720000000     0.424040000000     0.00211478 
C        C      0.537520000000     0.976840000000     0.442300000000     0.00211478 
C        C      0.500830000000     0.082660000000     0.463530000000     0.00211478 
C        C      0.463820000000     0.105640000000     0.521310000000     0.00211478 
C        C      0.495820000000     0.169240000000     0.423630000000     0.00211478 
C        C      0.050210000000     0.399020000000     0.067380000000     0.00211478 
C        C      0.082290000000     0.289980000000     0.054210000000     0.00211478 
C        C      0.207990000000     0.289580000000     0.084370000000     0.00211478 
C        C      0.299010000000     0.404820000000     0.126530000000     0.00211478 
C        C      0.260420000000     0.510840000000     0.137470000000     0.00211478 
C        C      0.242320000000     0.169240000000     0.071700000000     0.00211478 
C        C      0.154920000000     0.071040000000     0.109580000000     0.00211478 
C        C      0.195120000000     0.230840000000     0.273240000000     0.00211478 
C        C      0.134660000000     0.175320000000     0.214630000000     0.00211478 
C        C      0.213730000000     0.125460000000     0.174570000000     0.00211478 
C        C      0.351940000000     0.132480000000     0.196990000000     0.00211478 
C        C      0.406000000000     0.188600000000     0.256040000000     0.00211478 
C        C      0.551560000000     0.633320000000     0.026560000000     0.00211478 
C        C      0.639720000000     0.567040000000     0.036920000000     0.00211478 
C        C      0.586960000000     0.433120000000     0.009980000000     0.00211478 
C        C      0.791740000000     0.641280000000     0.075960000000     0.00211478 
C        C      0.560680000000     0.023160000000     0.057700000000     0.00211478 
C        C      0.418170000000     0.917340000000     0.036470000000     0.00211478 
C        C      0.358180000000     0.894360000000     0.978690000000     0.00211478 
C        C      0.326580000000     0.830760000000     0.076370000000     0.00211478 
C        C      0.348810000000     0.399020000000     0.567380000000     0.00211478 
C        C      0.207690000000     0.289980000000     0.554210000000     0.00211478 
C        C      0.081590000000     0.289580000000     0.584370000000     0.00211478 
C        C      0.105810000000     0.404820000000     0.626530000000     0.00211478 
C        C      0.250420000000     0.510840000000     0.637470000000     0.00211478 
C        C      0.926920000000     0.169240000000     0.571700000000     0.00211478 
C        C      0.916120000000     0.071040000000     0.609580000000     0.00211478 
C        C      0.035720000000     0.230840000000     0.773240000000     0.00211478 
C        C      0.040660000000     0.175320000000     0.714630000000     0.00211478 
C        C      0.911730000000     0.125460000000     0.674570000000     0.00211478 
C        C      0.780540000000     0.132480000000     0.696990000000     0.00211478 
C        C      0.782600000000     0.188600000000     0.756040000000     0.00211478 
C        C      0.081760000000     0.633320000000     0.526560000000     0.00211478 
C        C      0.927320000000     0.567040000000     0.536920000000     0.00211478 
C        C      0.846160000000     0.433120000000     0.509980000000     0.00211478 
C        C      0.849540000000     0.641280000000     0.575960000000     0.00211478 
C        C      0.462480000000     0.023160000000     0.557700000000     0.00211478 
C        C      0.499170000000     0.917340000000     0.536470000000     0.00211478 
C        C      0.536180000000     0.894360000000     0.478690000000     0.00211478 
C        C      0.504180000000     0.830760000000     0.576370000000     0.00211478 
C        C      0.949790000000     0.600980000000     0.932620000000     0.00211478 
C        C      0.917710000000     0.710020000000     0.945790000000     0.00211478 
C        C      0.792010000000     0.710420000000     0.915630000000     0.00211478 
C        C      0.700990000000     0.595180000000     0.873470000000     0.00211478 
C        C      0.739580000000     0.489160000000     0.862530000000     0.00211478 
C        C      0.757680000000     0.830760000000     0.928300000000     0.00211478 
C        C      0.845080000000     0.928960000000     0.890420000000     0.00211478 
C        C      0.804880000000     0.769160000000     0.726760000000     0.00211478 
C        C      0.865340000000     0.824680000000     0.785370000000     0.00211478 
C        C      0.786270000000     0.874540000000     0.825430000000     0.00211478 
C        C      0.648060000000     0.867520000000     0.803010000000     0.00211478 
C        C      0.594000000000     0.811400000000     0.743960000000     0.00211478 
C        C      0.448440000000     0.366680000000     0.973440000000     0.00211478 
C        C      0.360280000000     0.432960000000     0.963080000000     0.00211478 
C        C      0.413040000000     0.566880000000     0.990020000000     0.00211478 
C        C      0.208260000000     0.358720000000     0.924040000000     0.00211478 
C        C      0.439320000000     0.976840000000     0.942300000000     0.00211478 
C        C      0.581830000000     0.082660000000     0.963530000000     0.00211478 
C        C      0.641820000000     0.105640000000     0.021310000000     0.00211478 
C        C      0.673420000000     0.169240000000     0.923630000000     0.00211478 
N        N      0.626730000000     0.490340000000     0.390950000000    -0.209863   
N        N      0.091290000000     0.761520000000     0.205620000000    -0.209863   
N        N      0.136390000000     0.509660000000     0.109050000000    -0.209863   
N        N      0.329770000000     0.238480000000     0.294380000000    -0.209863   
N        N      0.373270000000     0.509660000000     0.609050000000    -0.209863   
N        N      0.908710000000     0.238480000000     0.794380000000    -0.209863   
N        N      0.863610000000     0.490340000000     0.890950000000    -0.209863   
N        N      0.670230000000     0.761520000000     0.705620000000    -0.209863   
O        O      0.289570000000     0.430020000000     0.413500000000    -0.289453   
O        O      0.082010000000     0.237800000000     0.404590000000    -0.289453   
O        O      0.420710000000     0.238340000000     0.439970000000    -0.289453   
O        O      0.559000000000     0.168360000000     0.376710000000    -0.289453   
O        O      0.859550000000     0.569980000000     0.086500000000    -0.289453   
O        O      0.844210000000     0.762200000000     0.095410000000    -0.289453   
O        O      0.182370000000     0.761660000000     0.060030000000    -0.289453   
O        O      0.390640000000     0.831640000000     0.123290000000    -0.289453   
O        O      0.710430000000     0.569980000000     0.586500000000    -0.289453   
O        O      0.917990000000     0.762200000000     0.595410000000    -0.289453   
O        O      0.579290000000     0.761660000000     0.560030000000    -0.289453   
O        O      0.441000000000     0.831640000000     0.623290000000    -0.289453   
O        O      0.140450000000     0.430020000000     0.913500000000    -0.289453   
O        O      0.155790000000     0.237800000000     0.904590000000    -0.289453   
O        O      0.817630000000     0.238340000000     0.939970000000    -0.289453   
O        O      0.609360000000     0.168360000000     0.876710000000    -0.289453   


