data_PAMHES01_original

_audit_creation_method RASPA-1.0
_audit_creation_date 2022-1-30
_audit_author_name 'Felipe Lopes de Oliveira <felipe.lopes.oliveira@ibm.com>'

_cell_length_a    8.246
_cell_length_b    9.705
_cell_length_c    19.408
_cell_angle_alpha 90
_cell_angle_beta  90
_cell_angle_gamma 101.79
_cell_volume      1520.41

_symmetry_cell_setting          triclinic
_symmetry_space_group_name_Hall 'P 1'
_symmetry_space_group_name_H-M  'P 1'
_symmetry_Int_Tables_number     1

_symmetry_equiv_pos_as_xyz 'x,y,z'

loop_
_atom_site_label
_atom_site_type_symbol
_atom_site_fract_x
_atom_site_fract_y
_atom_site_fract_z
_atom_site_charge
Zn       Zn     0.285270000000     0.157850000000     0.482350000000     0.497609   
Zn       Zn     0.638070000000     0.053710000000     0.426000000000     0.497609   
Zn       Zn     0.714730000000     0.842150000000     0.982350000000     0.497609   
Zn       Zn     0.361930000000     0.946290000000     0.926000000000     0.497609   
H        H      0.040100000000     0.200000000000     0.602100000000     0.286106   
H        H      0.952300000000     0.320900000000     0.577600000000     0.286106   
H        H      0.140100000000     0.448700000000     0.640600000000     0.286106   
H        H      0.247200000000     0.452200000000     0.573600000000     0.286106   
H        H      0.262500000000     0.345600000000     0.632700000000     0.286106   
H        H      0.208400000000     0.248500000000     0.490700000000     0.286106   
H        H      0.959900000000     0.800000000000     0.102100000000     0.286106   
H        H      0.047700000000     0.679100000000     0.077600000000     0.286106   
H        H      0.859900000000     0.551300000000     0.140600000000     0.286106   
H        H      0.752800000000     0.547800000000     0.073600000000     0.286106   
H        H      0.737500000000     0.654400000000     0.132700000000     0.286106   
H        H      0.791600000000     0.751500000000     0.990700000000     0.286106   
C        C      0.055700000000     0.287800000000     0.576700000000     0.141239   
C        C      0.187800000000     0.392700000000     0.608700000000     0.141239   
C        C      0.480100000000     0.027000000000     0.573020000000     0.141239   
C        C      0.529400000000     0.984000000000     0.643780000000     0.141239   
C        C      0.484900000000     0.847600000000     0.667310000000     0.141239   
C        C      0.531400000000     0.809000000000     0.731790000000     0.141239   
C        C      0.624200000000     0.907200000000     0.775760000000     0.141239   
C        C      0.668100000000     0.042900000000     0.752270000000     0.141239   
C        C      0.622300000000     0.081300000000     0.687680000000     0.141239   
C        C      0.675800000000     0.867100000000     0.846490000000     0.141239   
C        C      0.612900000000     0.355700000000     0.468990000000     0.141239   
C        C      0.708000000000     0.508100000000     0.470710000000     0.141239   
C        C      0.714900000000     0.590400000000     0.529710000000     0.141239   
C        C      0.794300000000     0.730700000000     0.529080000000     0.141239   
C        C      0.867900000000     0.794500000000     0.470380000000     0.141239   
C        C      0.859600000000     0.713300000000     0.411720000000     0.141239   
C        C      0.782200000000     0.573400000000     0.412110000000     0.141239   
C        C      0.958300000000     0.948500000000     0.470370000000     0.141239   
C        C      0.944300000000     0.712200000000     0.076700000000     0.141239   
C        C      0.812200000000     0.607300000000     0.108700000000     0.141239   
C        C      0.519900000000     0.973000000000     0.073020000000     0.141239   
C        C      0.470600000000     0.016000000000     0.143780000000     0.141239   
C        C      0.515100000000     0.152400000000     0.167310000000     0.141239   
C        C      0.468600000000     0.191000000000     0.231790000000     0.141239   
C        C      0.375800000000     0.092800000000     0.275760000000     0.141239   
C        C      0.331900000000     0.957100000000     0.252270000000     0.141239   
C        C      0.377700000000     0.918700000000     0.187680000000     0.141239   
C        C      0.324200000000     0.132900000000     0.346490000000     0.141239   
C        C      0.387100000000     0.644300000000     0.968990000000     0.141239   
C        C      0.292000000000     0.491900000000     0.970710000000     0.141239   
C        C      0.285100000000     0.409600000000     0.029710000000     0.141239   
C        C      0.205700000000     0.269300000000     0.029080000000     0.141239   
C        C      0.132100000000     0.205500000000     0.970380000000     0.141239   
C        C      0.140400000000     0.286700000000     0.911720000000     0.141239   
C        C      0.217800000000     0.426600000000     0.912110000000     0.141239   
C        C      0.041700000000     0.051500000000     0.970370000000     0.141239   
O        O      0.549400000000     0.983000000000     0.523100000000    -0.264458   
O        O      0.373100000000     0.099700000000     0.572140000000    -0.264458   
O        O      0.781800000000     0.796800000000     0.852170000000    -0.264458   
O        O      0.605700000000     0.913700000000     0.898200000000    -0.264458   
O        O      0.461300000000     0.341800000000     0.479450000000    -0.264458   
O        O      0.695500000000     0.264700000000     0.456700000000    -0.264458   
O        O      0.877100000000     0.041300000000     0.460350000000    -0.264458   
O        O      0.109500000000     0.967500000000     0.481330000000    -0.264458   
O        O      0.102600000000     0.265700000000     0.505670000000    -0.264458   
O        O      0.450600000000     0.017000000000     0.023100000000    -0.264458   
O        O      0.626900000000     0.900300000000     0.072140000000    -0.264458   
O        O      0.218200000000     0.203200000000     0.352170000000    -0.264458   
O        O      0.394300000000     0.086300000000     0.398200000000    -0.264458   
O        O      0.538700000000     0.658200000000     0.979450000000    -0.264458   
O        O      0.304500000000     0.735300000000     0.956700000000    -0.264458   
O        O      0.122900000000     0.958700000000     0.960350000000    -0.264458   
O        O      0.890500000000     0.032500000000     0.981330000000    -0.264458   
O        O      0.897400000000     0.734300000000     0.005670000000    -0.264458   
F        F      0.393700000000     0.748800000000     0.626760000000    -0.359255   
F        F      0.480800000000     0.675300000000     0.752330000000    -0.359255   
F        F      0.764000000000     0.141100000000     0.791560000000    -0.359255   
F        F      0.670400000000     0.215900000000     0.667210000000    -0.359255   
F        F      0.645600000000     0.534400000000     0.588440000000    -0.359255   
F        F      0.800100000000     0.805100000000     0.588110000000    -0.359255   
F        F      0.926000000000     0.771500000000     0.352820000000    -0.359255   
F        F      0.779600000000     0.499400000000     0.353300000000    -0.359255   
F        F      0.606300000000     0.251200000000     0.126760000000    -0.359255   
F        F      0.519200000000     0.324700000000     0.252330000000    -0.359255   
F        F      0.236000000000     0.858900000000     0.291560000000    -0.359255   
F        F      0.329600000000     0.784100000000     0.167210000000    -0.359255   
F        F      0.354400000000     0.465600000000     0.088440000000    -0.359255   
F        F      0.199900000000     0.194900000000     0.088110000000    -0.359255   
F        F      0.074000000000     0.228500000000     0.852820000000    -0.359255   
F        F      0.220400000000     0.500600000000     0.853300000000    -0.359255   


