data_PAPHEV_original

_audit_creation_method RASPA-1.0
_audit_creation_date 2022-1-30
_audit_author_name 'Felipe Lopes de Oliveira <felipe.lopes.oliveira@ibm.com>'

_cell_length_a    13.3311
_cell_length_b    13.4802
_cell_length_c    17.2856
_cell_angle_alpha 101.372
_cell_angle_beta  90
_cell_angle_gamma 119.634
_cell_volume      2629.62

_symmetry_cell_setting          triclinic
_symmetry_space_group_name_Hall 'P 1'
_symmetry_space_group_name_H-M  'P 1'
_symmetry_Int_Tables_number     1

_symmetry_equiv_pos_as_xyz 'x,y,z'

loop_
_atom_site_label
_atom_site_type_symbol
_atom_site_fract_x
_atom_site_fract_y
_atom_site_fract_z
_atom_site_charge
Zn       Zn     0.935020000000     0.498860000000     0.742700000000     0.471527   
Zn       Zn     0.064980000000     0.501140000000     0.257300000000     0.471527   
Zn       Zn     0.436160000000     0.501140000000     0.757300000000     0.471527   
Zn       Zn     0.563840000000     0.498860000000     0.242700000000     0.471527   
H        H      0.680800000000     0.244600000000     0.877800000000     0.0784181  
H        H      0.680500000000     0.092400000000     0.918000000000     0.0784181  
H        H      0.947600000000     0.137200000000     0.796500000000     0.0784181  
H        H      0.813400000000     0.617600000000     0.660900000000     0.0784181  
H        H      0.647000000000     0.320800000000     0.503200000000     0.0784181  
H        H      0.772700000000     0.307600000000     0.595800000000     0.0784181  
H        H      0.689600000000     0.620600000000     0.552500000000     0.0784181  
H        H      0.676900000000     0.534400000000     0.472600000000     0.0784181  
H        H      0.494500000000     0.393400000000     0.503700000000     0.0784181  
H        H      0.506700000000     0.487200000000     0.578900000000     0.0784181  
H        H      0.321200000000     0.730200000000     0.749600000000     0.0784181  
H        H      0.449500000000     0.909800000000     0.829500000000     0.0784181  
H        H      0.192600000000     0.914600000000     0.942000000000     0.0784181  
H        H      0.319200000000     0.755400000000     0.122200000000     0.0784181  
H        H      0.319500000000     0.907600000000     0.082000000000     0.0784181  
H        H      0.052400000000     0.862800000000     0.203500000000     0.0784181  
H        H      0.186600000000     0.382400000000     0.339100000000     0.0784181  
H        H      0.353000000000     0.679200000000     0.496800000000     0.0784181  
H        H      0.227300000000     0.692400000000     0.404200000000     0.0784181  
H        H      0.310400000000     0.379400000000     0.447500000000     0.0784181  
H        H      0.323100000000     0.465600000000     0.527400000000     0.0784181  
H        H      0.505500000000     0.606600000000     0.496300000000     0.0784181  
H        H      0.493300000000     0.512800000000     0.421100000000     0.0784181  
H        H      0.678800000000     0.269800000000     0.250400000000     0.0784181  
H        H      0.550500000000     0.090200000000     0.170500000000     0.0784181  
H        H      0.807400000000     0.085400000000     0.058000000000     0.0784181  
H        H      0.195800000000     0.382400000000     0.839100000000     0.0784181  
H        H      0.326200000000     0.679200000000     0.996800000000     0.0784181  
H        H      0.465100000000     0.692400000000     0.904200000000     0.0784181  
H        H      0.069000000000     0.379400000000     0.947500000000     0.0784181  
H        H      0.142500000000     0.465600000000     0.027400000000     0.0784181  
H        H      0.101100000000     0.606600000000     0.996300000000     0.0784181  
H        H      0.019500000000     0.512800000000     0.921100000000     0.0784181  
H        H      0.591000000000     0.269800000000     0.750400000000     0.0784181  
H        H      0.539700000000     0.090200000000     0.670500000000     0.0784181  
H        H      0.278000000000     0.085400000000     0.558000000000     0.0784181  
H        H      0.436200000000     0.755400000000     0.622200000000     0.0784181  
H        H      0.588100000000     0.907600000000     0.582000000000     0.0784181  
H        H      0.810400000000     0.862800000000     0.703500000000     0.0784181  
H        H      0.804200000000     0.617600000000     0.160900000000     0.0784181  
H        H      0.673800000000     0.320800000000     0.003200000000     0.0784181  
H        H      0.534900000000     0.307600000000     0.095800000000     0.0784181  
H        H      0.931000000000     0.620600000000     0.052500000000     0.0784181  
H        H      0.857500000000     0.534400000000     0.972600000000     0.0784181  
H        H      0.898900000000     0.393400000000     0.003700000000     0.0784181  
H        H      0.980500000000     0.487200000000     0.078900000000     0.0784181  
H        H      0.409000000000     0.730200000000     0.249600000000     0.0784181  
H        H      0.460300000000     0.909800000000     0.329500000000     0.0784181  
H        H      0.722000000000     0.914600000000     0.442000000000     0.0784181  
H        H      0.563800000000     0.244600000000     0.377800000000     0.0784181  
H        H      0.411900000000     0.092400000000     0.418000000000     0.0784181  
H        H      0.189600000000     0.137200000000     0.296500000000     0.0784181  
C        C      0.897860000000     0.254120000000     0.788600000000     0.0305712  
C        C      0.821320000000     0.293440000000     0.817000000000     0.0305712  
C        C      0.737580000000     0.225960000000     0.862900000000     0.0305712  
C        C      0.736170000000     0.133740000000     0.886600000000     0.0305712  
C        C      0.817970000000     0.102940000000     0.863500000000     0.0305712  
C        C      0.895120000000     0.160840000000     0.813900000000     0.0305712  
C        C      0.976220000000     0.301640000000     0.727900000000     0.0305712  
C        C      0.788040000000     0.541480000000     0.632800000000     0.0305712  
C        C      0.696200000000     0.379800000000     0.546200000000     0.0305712  
C        C      0.765700000000     0.373200000000     0.597400000000     0.0305712  
C        C      0.657260000000     0.538520000000     0.526800000000     0.0305712  
C        C      0.526750000000     0.476700000000     0.525100000000     0.0305712  
C        C      0.135590000000     0.767180000000     0.854800000000     0.0305712  
C        C      0.173760000000     0.708520000000     0.795800000000     0.0305712  
C        C      0.293300000000     0.766000000000     0.788100000000     0.0305712  
C        C      0.370900000000     0.874400000000     0.835900000000     0.0305712  
C        C      0.332200000000     0.929200000000     0.892500000000     0.0305712  
C        C      0.217530000000     0.876860000000     0.902500000000     0.0305712  
C        C      0.012980000000     0.726360000000     0.865800000000     0.0305712  
C        C      0.102140000000     0.745880000000     0.211400000000     0.0305712  
C        C      0.178680000000     0.706560000000     0.183000000000     0.0305712  
C        C      0.262420000000     0.774040000000     0.137100000000     0.0305712  
C        C      0.263830000000     0.866260000000     0.113400000000     0.0305712  
C        C      0.182030000000     0.897060000000     0.136500000000     0.0305712  
C        C      0.104880000000     0.839160000000     0.186100000000     0.0305712  
C        C      0.023780000000     0.698360000000     0.272100000000     0.0305712  
C        C      0.211960000000     0.458520000000     0.367200000000     0.0305712  
C        C      0.303800000000     0.620200000000     0.453800000000     0.0305712  
C        C      0.234300000000     0.626800000000     0.402600000000     0.0305712  
C        C      0.342740000000     0.461480000000     0.473200000000     0.0305712  
C        C      0.473250000000     0.523300000000     0.474900000000     0.0305712  
C        C      0.864410000000     0.232820000000     0.145200000000     0.0305712  
C        C      0.826240000000     0.291480000000     0.204200000000     0.0305712  
C        C      0.706700000000     0.234000000000     0.211900000000     0.0305712  
C        C      0.629100000000     0.125600000000     0.164100000000     0.0305712  
C        C      0.667800000000     0.070800000000     0.107500000000     0.0305712  
C        C      0.782470000000     0.123140000000     0.097500000000     0.0305712  
C        C      0.987020000000     0.273640000000     0.134200000000     0.0305712  
C        C      0.246560000000     0.458520000000     0.867200000000     0.0305712  
C        C      0.316400000000     0.620200000000     0.953800000000     0.0305712  
C        C      0.392500000000     0.626800000000     0.902600000000     0.0305712  
C        C      0.118740000000     0.461480000000     0.973200000000     0.0305712  
C        C      0.050050000000     0.523300000000     0.974900000000     0.0305712  
C        C      0.368410000000     0.232820000000     0.645200000000     0.0305712  
C        C      0.465240000000     0.291480000000     0.704200000000     0.0305712  
C        C      0.527300000000     0.234000000000     0.711900000000     0.0305712  
C        C      0.496500000000     0.125600000000     0.664100000000     0.0305712  
C        C      0.403000000000     0.070800000000     0.607500000000     0.0305712  
C        C      0.340670000000     0.123140000000     0.597500000000     0.0305712  
C        C      0.286620000000     0.273640000000     0.634200000000     0.0305712  
C        C      0.643740000000     0.745880000000     0.711400000000     0.0305712  
C        C      0.527880000000     0.706560000000     0.683000000000     0.0305712  
C        C      0.511620000000     0.774040000000     0.637100000000     0.0305712  
C        C      0.602430000000     0.866260000000     0.613400000000     0.0305712  
C        C      0.715030000000     0.897060000000     0.636500000000     0.0305712  
C        C      0.734280000000     0.839160000000     0.686100000000     0.0305712  
C        C      0.674580000000     0.698360000000     0.772100000000     0.0305712  
C        C      0.753440000000     0.541480000000     0.132800000000     0.0305712  
C        C      0.683600000000     0.379800000000     0.046200000000     0.0305712  
C        C      0.607500000000     0.373200000000     0.097400000000     0.0305712  
C        C      0.881260000000     0.538520000000     0.026800000000     0.0305712  
C        C      0.949950000000     0.476700000000     0.025100000000     0.0305712  
C        C      0.631590000000     0.767180000000     0.354800000000     0.0305712  
C        C      0.534760000000     0.708520000000     0.295800000000     0.0305712  
C        C      0.472700000000     0.766000000000     0.288100000000     0.0305712  
C        C      0.503500000000     0.874400000000     0.335900000000     0.0305712  
C        C      0.597000000000     0.929200000000     0.392500000000     0.0305712  
C        C      0.659330000000     0.876860000000     0.402500000000     0.0305712  
C        C      0.713380000000     0.726360000000     0.365800000000     0.0305712  
C        C      0.356260000000     0.254120000000     0.288600000000     0.0305712  
C        C      0.472120000000     0.293440000000     0.317000000000     0.0305712  
C        C      0.488380000000     0.225960000000     0.362900000000     0.0305712  
C        C      0.397570000000     0.133740000000     0.386600000000     0.0305712  
C        C      0.284970000000     0.102940000000     0.363500000000     0.0305712  
C        C      0.265720000000     0.160840000000     0.313900000000     0.0305712  
C        C      0.325420000000     0.301640000000     0.227900000000     0.0305712  
Br       Br     0.820830000000     0.978460000000     0.896940000000    -0.216814   
Br       Br     0.437400000000     0.081100000000     0.954770000000    -0.216814   
Br       Br     0.179170000000     0.021540000000     0.103060000000    -0.216814   
Br       Br     0.562600000000     0.918900000000     0.045230000000    -0.216814   
Br       Br     0.356300000000     0.918900000000     0.545230000000    -0.216814   
Br       Br     0.842370000000     0.021540000000     0.603060000000    -0.216814   
Br       Br     0.643700000000     0.081100000000     0.454770000000    -0.216814   
Br       Br     0.157630000000     0.978460000000     0.396940000000    -0.216814   
N        N      0.824740000000     0.474880000000     0.651900000000    -0.132976   
N        N      0.710510000000     0.488420000000     0.568600000000    -0.132976   
N        N      0.175260000000     0.525120000000     0.348100000000    -0.132976   
N        N      0.289490000000     0.511580000000     0.431400000000    -0.132976   
N        N      0.349860000000     0.525120000000     0.848100000000    -0.132976   
N        N      0.222090000000     0.511580000000     0.931400000000    -0.132976   
N        N      0.650140000000     0.474880000000     0.151900000000    -0.132976   
N        N      0.777910000000     0.488420000000     0.068600000000    -0.132976   
O        O      0.051260000000     0.269980000000     0.713290000000    -0.228706   
O        O      0.968580000000     0.369260000000     0.690500000000    -0.228706   
O        O      0.824330000000     0.387400000000     0.804330000000    -0.228706   
O        O      0.931570000000     0.631320000000     0.822110000000    -0.228706   
O        O      0.983360000000     0.784520000000     0.915200000000    -0.228706   
O        O      0.104970000000     0.606360000000     0.747700000000    -0.228706   
O        O      0.948740000000     0.730020000000     0.286710000000    -0.228706   
O        O      0.031420000000     0.630740000000     0.309500000000    -0.228706   
O        O      0.175670000000     0.612600000000     0.195670000000    -0.228706   
O        O      0.068430000000     0.368680000000     0.177890000000    -0.228706   
O        O      0.016640000000     0.215480000000     0.084800000000    -0.228706   
O        O      0.895030000000     0.393640000000     0.252300000000    -0.228706   
O        O      0.300250000000     0.368680000000     0.677890000000    -0.228706   
O        O      0.198840000000     0.215480000000     0.584800000000    -0.228706   
O        O      0.498610000000     0.393640000000     0.752300000000    -0.228706   
O        O      0.781280000000     0.730020000000     0.786710000000    -0.228706   
O        O      0.599320000000     0.630740000000     0.809500000000    -0.228706   
O        O      0.436930000000     0.612600000000     0.695670000000    -0.228706   
O        O      0.699750000000     0.631320000000     0.322110000000    -0.228706   
O        O      0.801160000000     0.784520000000     0.415200000000    -0.228706   
O        O      0.501390000000     0.606360000000     0.247700000000    -0.228706   
O        O      0.218720000000     0.269980000000     0.213290000000    -0.228706   
O        O      0.400680000000     0.369260000000     0.190500000000    -0.228706   
O        O      0.563070000000     0.387400000000     0.304330000000    -0.228706   


