data_PARHEW_original

_audit_creation_method RASPA-1.0
_audit_creation_date 2022-1-29
_audit_author_name 'Felipe Lopes de Oliveira <felipe.lopes.oliveira@ibm.com>'

_cell_length_a    7.7536
_cell_length_b    15.0736
_cell_length_c    16.8008
_cell_angle_alpha 90
_cell_angle_beta  99.799
_cell_angle_gamma 90
_cell_volume      1934.94

_symmetry_cell_setting          triclinic
_symmetry_space_group_name_Hall 'P 1'
_symmetry_space_group_name_H-M  'P 1'
_symmetry_Int_Tables_number     1

_symmetry_equiv_pos_as_xyz 'x,y,z'

loop_
_atom_site_label
_atom_site_type_symbol
_atom_site_fract_x
_atom_site_fract_y
_atom_site_fract_z
_atom_site_charge
Ca       Ca     0.504770000000     0.219110000000     0.249500000000     1.27483    
Ca       Ca     0.995230000000     0.719110000000     0.750500000000     1.27483    
Ca       Ca     0.495230000000     0.780890000000     0.750500000000     1.27483    
Ca       Ca     0.004770000000     0.280890000000     0.249500000000     1.27483    
H        H      0.616200000000     0.492800000000     0.134500000000     0.0696883  
H        H      0.736000000000     0.440100000000     0.087000000000     0.0696883  
H        H      0.629500000000     0.543400000000     0.964500000000     0.0696883  
H        H      0.512900000000     0.592300000000     0.014400000000     0.0696883  
H        H      0.379300000000     0.493700000000     0.363100000000     0.0696883  
H        H      0.271400000000     0.438100000000     0.413500000000     0.0696883  
H        H      0.634700000000     0.473100000000     0.457800000000     0.0696883  
H        H      0.543200000000     0.409800000000     0.508400000000     0.0696883  
H        H      0.883800000000     0.992800000000     0.865500000000     0.0696883  
H        H      0.764000000000     0.940100000000     0.913000000000     0.0696883  
H        H      0.870500000000     0.043400000000     0.035500000000     0.0696883  
H        H      0.987100000000     0.092300000000     0.985600000000     0.0696883  
H        H      0.120700000000     0.993700000000     0.636900000000     0.0696883  
H        H      0.228600000000     0.938100000000     0.586500000000     0.0696883  
H        H      0.865300000000     0.973100000000     0.542200000000     0.0696883  
H        H      0.956800000000     0.909800000000     0.491600000000     0.0696883  
H        H      0.383800000000     0.507200000000     0.865500000000     0.0696883  
H        H      0.264000000000     0.559900000000     0.913000000000     0.0696883  
H        H      0.370500000000     0.456600000000     0.035500000000     0.0696883  
H        H      0.487100000000     0.407700000000     0.985600000000     0.0696883  
H        H      0.620700000000     0.506300000000     0.636900000000     0.0696883  
H        H      0.728600000000     0.561900000000     0.586500000000     0.0696883  
H        H      0.365300000000     0.526900000000     0.542200000000     0.0696883  
H        H      0.456800000000     0.590200000000     0.491600000000     0.0696883  
H        H      0.116200000000     0.007200000000     0.134500000000     0.0696883  
H        H      0.236000000000     0.059900000000     0.087000000000     0.0696883  
H        H      0.129500000000     0.956600000000     0.964500000000     0.0696883  
H        H      0.012900000000     0.907700000000     0.014400000000     0.0696883  
H        H      0.879300000000     0.006300000000     0.363100000000     0.0696883  
H        H      0.771400000000     0.061900000000     0.413500000000     0.0696883  
H        H      0.134700000000     0.026900000000     0.457800000000     0.0696883  
H        H      0.043200000000     0.090200000000     0.508400000000     0.0696883  
C        C      0.589840000000     0.361970000000     0.147540000000     0.0171391  
C        C      0.619020000000     0.443530000000     0.098510000000     0.0171391  
C        C      0.485710000000     0.456940000000     0.021750000000     0.0171391  
C        C      0.418100000000     0.363260000000     0.350590000000     0.0171391  
C        C      0.386090000000     0.444550000000     0.399900000000     0.0171391  
C        C      0.524490000000     0.461470000000     0.474550000000     0.0171391  
C        C      0.910160000000     0.861970000000     0.852460000000     0.0171391  
C        C      0.880980000000     0.943530000000     0.901490000000     0.0171391  
C        C      0.014290000000     0.956940000000     0.978250000000     0.0171391  
C        C      0.081900000000     0.863260000000     0.649410000000     0.0171391  
C        C      0.113910000000     0.944550000000     0.600100000000     0.0171391  
C        C      0.975510000000     0.961470000000     0.525450000000     0.0171391  
C        C      0.410160000000     0.638030000000     0.852460000000     0.0171391  
C        C      0.380980000000     0.556470000000     0.901490000000     0.0171391  
C        C      0.514290000000     0.543060000000     0.978250000000     0.0171391  
C        C      0.581900000000     0.636740000000     0.649410000000     0.0171391  
C        C      0.613910000000     0.555450000000     0.600100000000     0.0171391  
C        C      0.475510000000     0.538530000000     0.525450000000     0.0171391  
C        C      0.089840000000     0.138030000000     0.147540000000     0.0171391  
C        C      0.119020000000     0.056470000000     0.098510000000     0.0171391  
C        C      0.985710000000     0.043060000000     0.021750000000     0.0171391  
C        C      0.918100000000     0.136740000000     0.350590000000     0.0171391  
C        C      0.886090000000     0.055450000000     0.399900000000     0.0171391  
C        C      0.024490000000     0.038530000000     0.474550000000     0.0171391  
O        O      0.437010000000     0.332370000000     0.144280000000    -0.483793   
O        O      0.719190000000     0.326740000000     0.191690000000    -0.483793   
O        O      0.289840000000     0.327180000000     0.306620000000    -0.483793   
O        O      0.571930000000     0.334610000000     0.354210000000    -0.483793   
O        O      0.062990000000     0.832370000000     0.855720000000    -0.483793   
O        O      0.780810000000     0.826740000000     0.808310000000    -0.483793   
O        O      0.210160000000     0.827180000000     0.693380000000    -0.483793   
O        O      0.928070000000     0.834610000000     0.645790000000    -0.483793   
O        O      0.562990000000     0.667630000000     0.855720000000    -0.483793   
O        O      0.280810000000     0.673260000000     0.808310000000    -0.483793   
O        O      0.710160000000     0.672820000000     0.693380000000    -0.483793   
O        O      0.428070000000     0.665390000000     0.645790000000    -0.483793   
O        O      0.937010000000     0.167630000000     0.144280000000    -0.483793   
O        O      0.219190000000     0.173260000000     0.191690000000    -0.483793   
O        O      0.789840000000     0.172820000000     0.306620000000    -0.483793   
O        O      0.071930000000     0.165390000000     0.354210000000    -0.483793   


