data_PARHAS_original

_audit_creation_method RASPA-1.0
_audit_creation_date 2022-1-31
_audit_author_name 'Felipe Lopes de Oliveira <felipe.lopes.oliveira@ibm.com>'

_cell_length_a    7.779
_cell_length_b    14.855
_cell_length_c    15.339
_cell_angle_alpha 90
_cell_angle_beta  90
_cell_angle_gamma 98.631
_cell_volume      1752.46

_symmetry_cell_setting          triclinic
_symmetry_space_group_name_Hall 'P 1'
_symmetry_space_group_name_H-M  'P 1'
_symmetry_Int_Tables_number     1

_symmetry_equiv_pos_as_xyz 'x,y,z'

loop_
_atom_site_label
_atom_site_type_symbol
_atom_site_fract_x
_atom_site_fract_y
_atom_site_fract_z
_atom_site_charge
Ca       Ca     0.548890000000     0.220530000000     0.719290000000     1.26508    
Ca       Ca     0.951110000000     0.779470000000     0.219290000000     1.26508    
Ca       Ca     0.451110000000     0.779470000000     0.280710000000     1.26508    
Ca       Ca     0.048890000000     0.220530000000     0.780710000000     1.26508    
H        H      0.772500000000     0.042900000000     0.946700000000     0.0666671  
H        H      0.761700000000     0.139000000000     0.985900000000     0.0666671  
H        H      0.538700000000     0.912200000000     0.982500000000     0.0666671  
H        H      0.408900000000     0.959600000000     0.927200000000     0.0666671  
H        H      0.300400000000     0.378900000000     0.958300000000     0.0666671  
H        H      0.461700000000     0.342900000000     0.998900000000     0.0666671  
H        H      0.486400000000     0.511100000000     0.908700000000     0.0666671  
H        H      0.643800000000     0.475500000000     0.954000000000     0.0666671  
H        H      0.727500000000     0.957100000000     0.446700000000     0.0666671  
H        H      0.738300000000     0.861000000000     0.485900000000     0.0666671  
H        H      0.961300000000     0.087800000000     0.482500000000     0.0666671  
H        H      0.091100000000     0.040400000000     0.427200000000     0.0666671  
H        H      0.199600000000     0.621100000000     0.458300000000     0.0666671  
H        H      0.038300000000     0.657100000000     0.498900000000     0.0666671  
H        H      0.013600000000     0.488900000000     0.408700000000     0.0666671  
H        H      0.856200000000     0.524500000000     0.454000000000     0.0666671  
H        H      0.227500000000     0.957100000000     0.053300000000     0.0666671  
H        H      0.238300000000     0.861000000000     0.014100000000     0.0666671  
H        H      0.461300000000     0.087800000000     0.017500000000     0.0666671  
H        H      0.591100000000     0.040400000000     0.072800000000     0.0666671  
H        H      0.699600000000     0.621100000000     0.041700000000     0.0666671  
H        H      0.538300000000     0.657100000000     0.001100000000     0.0666671  
H        H      0.513600000000     0.488900000000     0.091300000000     0.0666671  
H        H      0.356200000000     0.524500000000     0.046000000000     0.0666671  
H        H      0.272500000000     0.042900000000     0.553300000000     0.0666671  
H        H      0.261700000000     0.139000000000     0.514100000000     0.0666671  
H        H      0.038700000000     0.912200000000     0.517500000000     0.0666671  
H        H      0.908900000000     0.959600000000     0.572800000000     0.0666671  
H        H      0.800400000000     0.378900000000     0.541700000000     0.0666671  
H        H      0.961700000000     0.342900000000     0.501100000000     0.0666671  
H        H      0.986400000000     0.511100000000     0.591300000000     0.0666671  
H        H      0.143800000000     0.475500000000     0.546000000000     0.0666671  
C        C      0.646600000000     0.120210000000     0.868130000000     0.0189867  
C        C      0.695700000000     0.087920000000     0.955400000000     0.0189867  
C        C      0.546000000000     0.046190000000     0.014480000000     0.0189867  
C        C      0.454100000000     0.331560000000     0.866280000000     0.0189867  
C        C      0.424100000000     0.378210000000     0.951300000000     0.0189867  
C        C      0.519600000000     0.476320000000     0.957800000000     0.0189867  
C        C      0.853400000000     0.879790000000     0.368130000000     0.0189867  
C        C      0.804300000000     0.912080000000     0.455400000000     0.0189867  
C        C      0.954000000000     0.953810000000     0.514480000000     0.0189867  
C        C      0.045900000000     0.668440000000     0.366280000000     0.0189867  
C        C      0.075900000000     0.621790000000     0.451300000000     0.0189867  
C        C      0.980400000000     0.523680000000     0.457800000000     0.0189867  
C        C      0.353400000000     0.879790000000     0.131870000000     0.0189867  
C        C      0.304300000000     0.912080000000     0.044600000000     0.0189867  
C        C      0.454000000000     0.953810000000     0.985520000000     0.0189867  
C        C      0.545900000000     0.668440000000     0.133720000000     0.0189867  
C        C      0.575900000000     0.621790000000     0.048700000000     0.0189867  
C        C      0.480400000000     0.523680000000     0.042200000000     0.0189867  
C        C      0.146600000000     0.120210000000     0.631870000000     0.0189867  
C        C      0.195700000000     0.087920000000     0.544600000000     0.0189867  
C        C      0.046000000000     0.046190000000     0.485520000000     0.0189867  
C        C      0.954100000000     0.331560000000     0.633720000000     0.0189867  
C        C      0.924100000000     0.378210000000     0.548700000000     0.0189867  
C        C      0.019600000000     0.476320000000     0.542200000000     0.0189867  
O        O      0.766400000000     0.150020000000     0.815300000000    -0.478083   
O        O      0.489300000000     0.119070000000     0.847720000000    -0.478083   
O        O      0.609100000000     0.330400000000     0.841800000000    -0.478083   
O        O      0.327400000000     0.295590000000     0.821380000000    -0.478083   
O        O      0.733600000000     0.849980000000     0.315300000000    -0.478083   
O        O      0.010700000000     0.880930000000     0.347720000000    -0.478083   
O        O      0.890900000000     0.669600000000     0.341800000000    -0.478083   
O        O      0.172600000000     0.704410000000     0.321380000000    -0.478083   
O        O      0.233600000000     0.849980000000     0.184700000000    -0.478083   
O        O      0.510700000000     0.880930000000     0.152280000000    -0.478083   
O        O      0.390900000000     0.669600000000     0.158200000000    -0.478083   
O        O      0.672600000000     0.704410000000     0.178620000000    -0.478083   
O        O      0.266400000000     0.150020000000     0.684700000000    -0.478083   
O        O      0.989300000000     0.119070000000     0.652280000000    -0.478083   
O        O      0.109100000000     0.330400000000     0.658200000000    -0.478083   
O        O      0.827400000000     0.295590000000     0.678620000000    -0.478083   


