data_PEGBEK02_original

_audit_creation_method RASPA-1.0
_audit_creation_date 2022-1-31
_audit_author_name 'Felipe Lopes de Oliveira <felipe.lopes.oliveira@ibm.com>'

_cell_length_a    10.665
_cell_length_b    12.4195
_cell_length_c    17.1416
_cell_angle_alpha 90
_cell_angle_beta  95.38
_cell_angle_gamma 90
_cell_volume      2260.47

_symmetry_cell_setting          triclinic
_symmetry_space_group_name_Hall 'P 1'
_symmetry_space_group_name_H-M  'P 1'
_symmetry_Int_Tables_number     1

_symmetry_equiv_pos_as_xyz 'x,y,z'

loop_
_atom_site_label
_atom_site_type_symbol
_atom_site_fract_x
_atom_site_fract_y
_atom_site_fract_z
_atom_site_charge
Zn       Zn     0.274010000000     0.264790000000     0.398810000000     0.339109   
Zn       Zn     0.793620000000     0.256580000000     0.543740000000     0.339109   
Zn       Zn     0.225990000000     0.764790000000     0.101190000000     0.339109   
Zn       Zn     0.706380000000     0.756580000000     0.956260000000     0.339109   
Zn       Zn     0.725990000000     0.735210000000     0.601190000000     0.339109   
Zn       Zn     0.206380000000     0.743420000000     0.456260000000     0.339109   
Zn       Zn     0.774010000000     0.235210000000     0.898810000000     0.339109   
Zn       Zn     0.293620000000     0.243420000000     0.043740000000     0.339109   
H        H      0.933500000000     0.361800000000     0.786100000000     0.220233   
H        H      0.990100000000     0.318000000000     0.711100000000     0.220233   
H        H      0.885000000000     0.406700000000     0.703200000000     0.220233   
H        H      0.521400000000     0.058500000000     0.643000000000     0.220233   
H        H      0.640400000000     0.019000000000     0.604300000000     0.220233   
H        H      0.532000000000     0.316300000000     0.338200000000     0.220233   
H        H      0.639400000000     0.362700000000     0.397500000000     0.220233   
H        H      0.662400000000     0.257500000000     0.350400000000     0.220233   
H        H      0.983300000000     0.007600000000     0.329400000000     0.220233   
H        H      0.068900000000     0.094100000000     0.294000000000     0.220233   
H        H      0.128200000000     0.010700000000     0.355400000000     0.220233   
H        H      0.046700000000     0.367400000000     0.573200000000     0.220233   
H        H      0.175400000000     0.305900000000     0.581800000000     0.220233   
H        H      0.381500000000     0.613100000000     0.362600000000     0.220233   
H        H      0.463400000000     0.514500000000     0.393700000000     0.220233   
H        H      0.359700000000     0.499800000000     0.323400000000     0.220233   
H        H      0.566500000000     0.861800000000     0.713900000000     0.220233   
H        H      0.509900000000     0.818000000000     0.788900000000     0.220233   
H        H      0.615000000000     0.906700000000     0.796800000000     0.220233   
H        H      0.978600000000     0.558500000000     0.857000000000     0.220233   
H        H      0.859600000000     0.519000000000     0.895700000000     0.220233   
H        H      0.968000000000     0.816300000000     0.161800000000     0.220233   
H        H      0.860600000000     0.862700000000     0.102500000000     0.220233   
H        H      0.837600000000     0.757500000000     0.149600000000     0.220233   
H        H      0.516700000000     0.507600000000     0.170600000000     0.220233   
H        H      0.431100000000     0.594100000000     0.206000000000     0.220233   
H        H      0.371800000000     0.510700000000     0.144600000000     0.220233   
H        H      0.453300000000     0.867400000000     0.926800000000     0.220233   
H        H      0.324600000000     0.805900000000     0.918200000000     0.220233   
H        H      0.118500000000     0.113100000000     0.137400000000     0.220233   
H        H      0.036600000000     0.014500000000     0.106300000000     0.220233   
H        H      0.140300000000     0.999800000000     0.176600000000     0.220233   
H        H      0.066500000000     0.638200000000     0.213900000000     0.220233   
H        H      0.009900000000     0.682000000000     0.288900000000     0.220233   
H        H      0.115000000000     0.593300000000     0.296800000000     0.220233   
H        H      0.478600000000     0.941500000000     0.357000000000     0.220233   
H        H      0.359600000000     0.981000000000     0.395700000000     0.220233   
H        H      0.468000000000     0.683700000000     0.661800000000     0.220233   
H        H      0.360600000000     0.637300000000     0.602500000000     0.220233   
H        H      0.337600000000     0.742500000000     0.649600000000     0.220233   
H        H      0.016700000000     0.992400000000     0.670600000000     0.220233   
H        H      0.931100000000     0.905900000000     0.706000000000     0.220233   
H        H      0.871800000000     0.989300000000     0.644600000000     0.220233   
H        H      0.953300000000     0.632600000000     0.426800000000     0.220233   
H        H      0.824600000000     0.694100000000     0.418200000000     0.220233   
H        H      0.618500000000     0.386900000000     0.637400000000     0.220233   
H        H      0.536600000000     0.485500000000     0.606300000000     0.220233   
H        H      0.640300000000     0.500200000000     0.676600000000     0.220233   
H        H      0.433500000000     0.138200000000     0.286100000000     0.220233   
H        H      0.490100000000     0.182000000000     0.211100000000     0.220233   
H        H      0.385000000000     0.093300000000     0.203200000000     0.220233   
H        H      0.021400000000     0.441500000000     0.143000000000     0.220233   
H        H      0.140400000000     0.481000000000     0.104300000000     0.220233   
H        H      0.032000000000     0.183700000000     0.838200000000     0.220233   
H        H      0.139400000000     0.137300000000     0.897500000000     0.220233   
H        H      0.162400000000     0.242500000000     0.850400000000     0.220233   
H        H      0.483300000000     0.492400000000     0.829400000000     0.220233   
H        H      0.568900000000     0.405900000000     0.794000000000     0.220233   
H        H      0.628200000000     0.489300000000     0.855400000000     0.220233   
H        H      0.546700000000     0.132600000000     0.073200000000     0.220233   
H        H      0.675400000000     0.194100000000     0.081800000000     0.220233   
H        H      0.881500000000     0.886900000000     0.862600000000     0.220233   
H        H      0.963400000000     0.985500000000     0.893700000000     0.220233   
H        H      0.859700000000     0.000200000000     0.823400000000     0.220233   
C        C      0.915000000000     0.343800000000     0.731770000000    -0.141403   
C        C      0.816600000000     0.258390000000     0.723810000000    -0.141403   
C        C      0.676900000000     0.148200000000     0.675560000000    -0.141403   
C        C      0.594200000000     0.082500000000     0.617890000000    -0.141403   
C        C      0.549500000000     0.141090000000     0.544040000000    -0.141403   
C        C      0.554500000000     0.232260000000     0.439560000000    -0.141403   
C        C      0.601200000000     0.298000000000     0.375760000000    -0.141403   
C        C      0.055100000000     0.053700000000     0.340200000000    -0.141403   
C        C      0.032100000000     0.128800000000     0.404700000000    -0.141403   
C        C      0.057100000000     0.251140000000     0.491640000000    -0.141403   
C        C      0.112400000000     0.337600000000     0.544180000000    -0.141403   
C        C      0.171900000000     0.427200000000     0.502670000000    -0.141403   
C        C      0.286300000000     0.510800000000     0.428290000000    -0.141403   
C        C      0.381300000000     0.536900000000     0.371910000000    -0.141403   
C        C      0.585000000000     0.843800000000     0.768230000000    -0.141403   
C        C      0.683400000000     0.758390000000     0.776190000000    -0.141403   
C        C      0.823100000000     0.648200000000     0.824440000000    -0.141403   
C        C      0.905800000000     0.582500000000     0.882110000000    -0.141403   
C        C      0.950500000000     0.641090000000     0.955960000000    -0.141403   
C        C      0.945500000000     0.732260000000     0.060440000000    -0.141403   
C        C      0.898800000000     0.798000000000     0.124240000000    -0.141403   
C        C      0.444900000000     0.553700000000     0.159800000000    -0.141403   
C        C      0.467900000000     0.628800000000     0.095300000000    -0.141403   
C        C      0.442900000000     0.751140000000     0.008360000000    -0.141403   
C        C      0.387600000000     0.837600000000     0.955820000000    -0.141403   
C        C      0.328100000000     0.927200000000     0.997330000000    -0.141403   
C        C      0.213700000000     0.010800000000     0.071710000000    -0.141403   
C        C      0.118700000000     0.036900000000     0.128090000000    -0.141403   
C        C      0.085000000000     0.656200000000     0.268230000000    -0.141403   
C        C      0.183400000000     0.741610000000     0.276190000000    -0.141403   
C        C      0.323100000000     0.851800000000     0.324440000000    -0.141403   
C        C      0.405800000000     0.917500000000     0.382110000000    -0.141403   
C        C      0.450500000000     0.858910000000     0.455960000000    -0.141403   
C        C      0.445500000000     0.767740000000     0.560440000000    -0.141403   
C        C      0.398800000000     0.702000000000     0.624240000000    -0.141403   
C        C      0.944900000000     0.946300000000     0.659800000000    -0.141403   
C        C      0.967900000000     0.871200000000     0.595300000000    -0.141403   
C        C      0.942900000000     0.748860000000     0.508360000000    -0.141403   
C        C      0.887600000000     0.662400000000     0.455820000000    -0.141403   
C        C      0.828100000000     0.572800000000     0.497330000000    -0.141403   
C        C      0.713700000000     0.489200000000     0.571710000000    -0.141403   
C        C      0.618700000000     0.463100000000     0.628090000000    -0.141403   
C        C      0.415000000000     0.156200000000     0.231770000000    -0.141403   
C        C      0.316600000000     0.241610000000     0.223810000000    -0.141403   
C        C      0.176900000000     0.351800000000     0.175560000000    -0.141403   
C        C      0.094200000000     0.417500000000     0.117890000000    -0.141403   
C        C      0.049500000000     0.358910000000     0.044040000000    -0.141403   
C        C      0.054500000000     0.267740000000     0.939560000000    -0.141403   
C        C      0.101200000000     0.202000000000     0.875760000000    -0.141403   
C        C      0.555100000000     0.446300000000     0.840200000000    -0.141403   
C        C      0.532100000000     0.371200000000     0.904700000000    -0.141403   
C        C      0.557100000000     0.248860000000     0.991640000000    -0.141403   
C        C      0.612400000000     0.162400000000     0.044180000000    -0.141403   
C        C      0.671900000000     0.072800000000     0.002670000000    -0.141403   
C        C      0.786300000000     0.989200000000     0.928290000000    -0.141403   
C        C      0.881300000000     0.963100000000     0.871910000000    -0.141403   
N        N      0.117300000000     0.202760000000     0.435930000000    -0.185193   
N        N      0.926200000000     0.130050000000     0.438410000000    -0.185193   
N        N      0.942940000000     0.210210000000     0.494770000000    -0.185193   
N        N      0.256350000000     0.410610000000     0.448820000000    -0.185193   
N        N      0.150090000000     0.529500000000     0.515170000000    -0.185193   
N        N      0.224600000000     0.583440000000     0.465690000000    -0.185193   
N        N      0.435360000000     0.202540000000     0.444580000000    -0.185193   
N        N      0.431720000000     0.143330000000     0.513210000000    -0.185193   
N        N      0.629570000000     0.194670000000     0.500550000000    -0.185193   
N        N      0.769070000000     0.216420000000     0.655090000000    -0.185193   
N        N      0.669000000000     0.145170000000     0.751300000000    -0.185193   
N        N      0.760500000000     0.217140000000     0.782490000000    -0.185193   
N        N      0.382700000000     0.702760000000     0.064070000000    -0.185193   
N        N      0.573800000000     0.630050000000     0.061590000000    -0.185193   
N        N      0.557060000000     0.710210000000     0.005230000000    -0.185193   
N        N      0.243650000000     0.910610000000     0.051180000000    -0.185193   
N        N      0.349910000000     0.029500000000     0.984830000000    -0.185193   
N        N      0.275400000000     0.083440000000     0.034310000000    -0.185193   
N        N      0.064640000000     0.702540000000     0.055420000000    -0.185193   
N        N      0.068280000000     0.643330000000     0.986790000000    -0.185193   
N        N      0.870430000000     0.694670000000     0.999450000000    -0.185193   
N        N      0.730930000000     0.716420000000     0.844910000000    -0.185193   
N        N      0.831000000000     0.645170000000     0.748700000000    -0.185193   
N        N      0.739500000000     0.717140000000     0.717510000000    -0.185193   
N        N      0.882700000000     0.797240000000     0.564070000000    -0.185193   
N        N      0.073800000000     0.869950000000     0.561590000000    -0.185193   
N        N      0.057060000000     0.789790000000     0.505230000000    -0.185193   
N        N      0.743650000000     0.589390000000     0.551180000000    -0.185193   
N        N      0.849910000000     0.470500000000     0.484830000000    -0.185193   
N        N      0.775400000000     0.416560000000     0.534310000000    -0.185193   
N        N      0.564640000000     0.797460000000     0.555420000000    -0.185193   
N        N      0.568280000000     0.856670000000     0.486790000000    -0.185193   
N        N      0.370430000000     0.805330000000     0.499450000000    -0.185193   
N        N      0.230930000000     0.783580000000     0.344910000000    -0.185193   
N        N      0.331000000000     0.854830000000     0.248700000000    -0.185193   
N        N      0.239500000000     0.782860000000     0.217510000000    -0.185193   
N        N      0.617300000000     0.297240000000     0.935930000000    -0.185193   
N        N      0.426200000000     0.369950000000     0.938410000000    -0.185193   
N        N      0.442940000000     0.289790000000     0.994770000000    -0.185193   
N        N      0.756350000000     0.089390000000     0.948820000000    -0.185193   
N        N      0.650090000000     0.970500000000     0.015170000000    -0.185193   
N        N      0.724600000000     0.916560000000     0.965690000000    -0.185193   
N        N      0.935360000000     0.297460000000     0.944580000000    -0.185193   
N        N      0.931720000000     0.356670000000     0.013210000000    -0.185193   
N        N      0.129570000000     0.305330000000     0.000550000000    -0.185193   
N        N      0.269070000000     0.283580000000     0.155090000000    -0.185193   
N        N      0.169000000000     0.354830000000     0.251300000000    -0.185193   
N        N      0.260500000000     0.282860000000     0.282490000000    -0.185193   


