data_PEGBAG_original

_audit_creation_method RASPA-1.0
_audit_creation_date 2022-1-30
_audit_author_name 'Felipe Lopes de Oliveira <felipe.lopes.oliveira@ibm.com>'

_cell_length_a    10.5783
_cell_length_b    12.3288
_cell_length_c    17.236
_cell_angle_alpha 90
_cell_angle_beta  93.714
_cell_angle_gamma 90
_cell_volume      2243.16

_symmetry_cell_setting          triclinic
_symmetry_space_group_name_Hall 'P 1'
_symmetry_space_group_name_H-M  'P 1'
_symmetry_Int_Tables_number     1

_symmetry_equiv_pos_as_xyz 'x,y,z'

loop_
_atom_site_label
_atom_site_type_symbol
_atom_site_fract_x
_atom_site_fract_y
_atom_site_fract_z
_atom_site_charge
Zn       Zn     0.283010000000     0.259560000000     0.406750000000     0.342499   
Zn       Zn     0.294480000000     0.244000000000     0.054380000000     0.342499   
Zn       Zn     0.216990000000     0.759560000000     0.093250000000     0.342499   
Zn       Zn     0.205520000000     0.744000000000     0.445620000000     0.342499   
Zn       Zn     0.716990000000     0.740440000000     0.593250000000     0.342499   
Zn       Zn     0.705520000000     0.756000000000     0.945620000000     0.342499   
Zn       Zn     0.783010000000     0.240440000000     0.906750000000     0.342499   
Zn       Zn     0.794480000000     0.256000000000     0.554380000000     0.342499   
H        H      0.443600000000     0.138700000000     0.289800000000     0.171631   
H        H      0.499500000000     0.193700000000     0.215200000000     0.171631   
H        H      0.400100000000     0.096100000000     0.204500000000     0.171631   
H        H      0.003500000000     0.425800000000     0.160100000000     0.171631   
H        H      0.123100000000     0.481300000000     0.124300000000     0.171631   
H        H      0.044000000000     0.192700000000     0.846800000000     0.171631   
H        H      0.159700000000     0.151800000000     0.903700000000     0.171631   
H        H      0.171200000000     0.262900000000     0.856700000000     0.171631   
H        H      0.010400000000     0.983400000000     0.355900000000     0.171631   
H        H      0.062700000000     0.081100000000     0.305900000000     0.171631   
H        H      0.157000000000     0.015900000000     0.365300000000     0.171631   
H        H      0.048200000000     0.371300000000     0.581200000000     0.171631   
H        H      0.182000000000     0.310500000000     0.589000000000     0.171631   
H        H      0.388900000000     0.610200000000     0.359700000000     0.171631   
H        H      0.463500000000     0.501400000000     0.384200000000     0.171631   
H        H      0.352300000000     0.498400000000     0.316700000000     0.171631   
H        H      0.056400000000     0.638700000000     0.210200000000     0.171631   
H        H      0.000500000000     0.693700000000     0.284800000000     0.171631   
H        H      0.099900000000     0.596100000000     0.295500000000     0.171631   
H        H      0.496500000000     0.925800000000     0.339900000000     0.171631   
H        H      0.376900000000     0.981300000000     0.375700000000     0.171631   
H        H      0.456000000000     0.692700000000     0.653200000000     0.171631   
H        H      0.340300000000     0.651800000000     0.596300000000     0.171631   
H        H      0.328800000000     0.762900000000     0.643300000000     0.171631   
H        H      0.489600000000     0.483400000000     0.144100000000     0.171631   
H        H      0.437300000000     0.581100000000     0.194100000000     0.171631   
H        H      0.343000000000     0.515900000000     0.134700000000     0.171631   
H        H      0.451800000000     0.871300000000     0.918800000000     0.171631   
H        H      0.318000000000     0.810500000000     0.911000000000     0.171631   
H        H      0.111100000000     0.110200000000     0.140300000000     0.171631   
H        H      0.036500000000     0.001400000000     0.115800000000     0.171631   
H        H      0.147700000000     0.998400000000     0.183300000000     0.171631   
H        H      0.556400000000     0.861300000000     0.710200000000     0.171631   
H        H      0.500500000000     0.806300000000     0.784800000000     0.171631   
H        H      0.599900000000     0.903900000000     0.795500000000     0.171631   
H        H      0.996500000000     0.574200000000     0.839900000000     0.171631   
H        H      0.876900000000     0.518700000000     0.875700000000     0.171631   
H        H      0.956000000000     0.807300000000     0.153200000000     0.171631   
H        H      0.840300000000     0.848200000000     0.096300000000     0.171631   
H        H      0.828800000000     0.737100000000     0.143300000000     0.171631   
H        H      0.989600000000     0.016600000000     0.644100000000     0.171631   
H        H      0.937300000000     0.918900000000     0.694100000000     0.171631   
H        H      0.843000000000     0.984100000000     0.634700000000     0.171631   
H        H      0.951800000000     0.628700000000     0.418800000000     0.171631   
H        H      0.818000000000     0.689500000000     0.411000000000     0.171631   
H        H      0.611100000000     0.389800000000     0.640300000000     0.171631   
H        H      0.536500000000     0.498600000000     0.615800000000     0.171631   
H        H      0.647700000000     0.501600000000     0.683300000000     0.171631   
H        H      0.943600000000     0.361300000000     0.789800000000     0.171631   
H        H      0.999500000000     0.306300000000     0.715200000000     0.171631   
H        H      0.900100000000     0.403900000000     0.704500000000     0.171631   
H        H      0.503500000000     0.074200000000     0.660100000000     0.171631   
H        H      0.623100000000     0.018700000000     0.624300000000     0.171631   
H        H      0.544000000000     0.307300000000     0.346800000000     0.171631   
H        H      0.659700000000     0.348200000000     0.403700000000     0.171631   
H        H      0.671200000000     0.237100000000     0.356700000000     0.171631   
H        H      0.510400000000     0.516600000000     0.855900000000     0.171631   
H        H      0.562700000000     0.418900000000     0.805900000000     0.171631   
H        H      0.657000000000     0.484100000000     0.865300000000     0.171631   
H        H      0.548200000000     0.128700000000     0.081200000000     0.171631   
H        H      0.682000000000     0.189500000000     0.089000000000     0.171631   
H        H      0.888900000000     0.889800000000     0.859700000000     0.171631   
H        H      0.963500000000     0.998600000000     0.884200000000     0.171631   
H        H      0.852300000000     0.001600000000     0.816700000000     0.171631   
C        C      0.424400000000     0.160300000000     0.235580000000    -0.0949774  
C        C      0.317800000000     0.239900000000     0.231390000000    -0.0949774  
C        C      0.169800000000     0.345000000000     0.188060000000    -0.0949774  
C        C      0.082200000000     0.410800000000     0.133820000000    -0.0949774  
C        C      0.047200000000     0.358100000000     0.056800000000    -0.0949774  
C        C      0.061100000000     0.276100000000     0.948880000000    -0.0949774  
C        C      0.113500000000     0.215700000000     0.883420000000    -0.0949774  
C        C      0.070600000000     0.043800000000     0.356200000000    -0.0949774  
C        C      0.043100000000     0.121000000000     0.418860000000    -0.0949774  
C        C      0.062500000000     0.249610000000     0.501640000000    -0.0949774  
C        C      0.116300000000     0.340100000000     0.551300000000    -0.0949774  
C        C      0.173400000000     0.428400000000     0.505230000000    -0.0949774  
C        C      0.287000000000     0.508800000000     0.425440000000    -0.0949774  
C        C      0.381000000000     0.531700000000     0.366430000000    -0.0949774  
C        C      0.075600000000     0.660300000000     0.264420000000    -0.0949774  
C        C      0.182200000000     0.739900000000     0.268610000000    -0.0949774  
C        C      0.330200000000     0.845000000000     0.311940000000    -0.0949774  
C        C      0.417800000000     0.910800000000     0.366180000000    -0.0949774  
C        C      0.452800000000     0.858100000000     0.443200000000    -0.0949774  
C        C      0.438900000000     0.776100000000     0.551120000000    -0.0949774  
C        C      0.386500000000     0.715700000000     0.616580000000    -0.0949774  
C        C      0.429400000000     0.543800000000     0.143800000000    -0.0949774  
C        C      0.456900000000     0.621000000000     0.081140000000    -0.0949774  
C        C      0.437500000000     0.749610000000     0.998360000000    -0.0949774  
C        C      0.383700000000     0.840100000000     0.948700000000    -0.0949774  
C        C      0.326600000000     0.928400000000     0.994770000000    -0.0949774  
C        C      0.213000000000     0.008800000000     0.074560000000    -0.0949774  
C        C      0.119000000000     0.031700000000     0.133570000000    -0.0949774  
C        C      0.575600000000     0.839700000000     0.764420000000    -0.0949774  
C        C      0.682200000000     0.760100000000     0.768610000000    -0.0949774  
C        C      0.830200000000     0.655000000000     0.811940000000    -0.0949774  
C        C      0.917800000000     0.589200000000     0.866180000000    -0.0949774  
C        C      0.952800000000     0.641900000000     0.943200000000    -0.0949774  
C        C      0.938900000000     0.723900000000     0.051120000000    -0.0949774  
C        C      0.886500000000     0.784300000000     0.116580000000    -0.0949774  
C        C      0.929400000000     0.956200000000     0.643800000000    -0.0949774  
C        C      0.956900000000     0.879000000000     0.581140000000    -0.0949774  
C        C      0.937500000000     0.750390000000     0.498360000000    -0.0949774  
C        C      0.883700000000     0.659900000000     0.448700000000    -0.0949774  
C        C      0.826600000000     0.571600000000     0.494770000000    -0.0949774  
C        C      0.713000000000     0.491200000000     0.574560000000    -0.0949774  
C        C      0.619000000000     0.468300000000     0.633570000000    -0.0949774  
C        C      0.924400000000     0.339700000000     0.735580000000    -0.0949774  
C        C      0.817800000000     0.260100000000     0.731390000000    -0.0949774  
C        C      0.669800000000     0.155000000000     0.688060000000    -0.0949774  
C        C      0.582200000000     0.089200000000     0.633820000000    -0.0949774  
C        C      0.547200000000     0.141900000000     0.556800000000    -0.0949774  
C        C      0.561100000000     0.223900000000     0.448880000000    -0.0949774  
C        C      0.613500000000     0.284300000000     0.383420000000    -0.0949774  
C        C      0.570600000000     0.456200000000     0.856200000000    -0.0949774  
C        C      0.543100000000     0.379000000000     0.918860000000    -0.0949774  
C        C      0.562500000000     0.250390000000     0.001640000000    -0.0949774  
C        C      0.616300000000     0.159900000000     0.051300000000    -0.0949774  
C        C      0.673400000000     0.071600000000     0.005230000000    -0.0949774  
C        C      0.787000000000     0.991200000000     0.925440000000    -0.0949774  
C        C      0.881000000000     0.968300000000     0.866430000000    -0.0949774  
N        N      0.125600000000     0.198320000000     0.447210000000    -0.175118   
N        N      0.935600000000     0.122790000000     0.453250000000    -0.175118   
N        N      0.948100000000     0.207060000000     0.506880000000    -0.175118   
N        N      0.259700000000     0.408840000000     0.451080000000    -0.175118   
N        N      0.148300000000     0.531890000000     0.513360000000    -0.175118   
N        N      0.222400000000     0.583960000000     0.460750000000    -0.175118   
N        N      0.941000000000     0.305710000000     0.953160000000    -0.175118   
N        N      0.931700000000     0.359590000000     0.023610000000    -0.175118   
N        N      0.131300000000     0.308010000000     0.012510000000    -0.175118   
N        N      0.265500000000     0.281160000000     0.164710000000    -0.175118   
N        N      0.163500000000     0.345650000000     0.263920000000    -0.175118   
N        N      0.260500000000     0.276710000000     0.292030000000    -0.175118   
N        N      0.374400000000     0.698320000000     0.052790000000    -0.175118   
N        N      0.564400000000     0.622790000000     0.046750000000    -0.175118   
N        N      0.551900000000     0.707060000000     0.993120000000    -0.175118   
N        N      0.240300000000     0.908840000000     0.048920000000    -0.175118   
N        N      0.351700000000     0.031890000000     0.986640000000    -0.175118   
N        N      0.277600000000     0.083960000000     0.039250000000    -0.175118   
N        N      0.559000000000     0.805710000000     0.546840000000    -0.175118   
N        N      0.568300000000     0.859590000000     0.476390000000    -0.175118   
N        N      0.368700000000     0.808010000000     0.487490000000    -0.175118   
N        N      0.234500000000     0.781160000000     0.335290000000    -0.175118   
N        N      0.336500000000     0.845650000000     0.236080000000    -0.175118   
N        N      0.239500000000     0.776710000000     0.207970000000    -0.175118   
N        N      0.874400000000     0.801680000000     0.552790000000    -0.175118   
N        N      0.064400000000     0.877210000000     0.546750000000    -0.175118   
N        N      0.051900000000     0.792940000000     0.493120000000    -0.175118   
N        N      0.740300000000     0.591160000000     0.548920000000    -0.175118   
N        N      0.851700000000     0.468110000000     0.486640000000    -0.175118   
N        N      0.777600000000     0.416040000000     0.539250000000    -0.175118   
N        N      0.059000000000     0.694290000000     0.046840000000    -0.175118   
N        N      0.068300000000     0.640410000000     0.976390000000    -0.175118   
N        N      0.868700000000     0.691990000000     0.987490000000    -0.175118   
N        N      0.734500000000     0.718840000000     0.835290000000    -0.175118   
N        N      0.836500000000     0.654350000000     0.736080000000    -0.175118   
N        N      0.739500000000     0.723290000000     0.707970000000    -0.175118   
N        N      0.625600000000     0.301680000000     0.947210000000    -0.175118   
N        N      0.435600000000     0.377210000000     0.953250000000    -0.175118   
N        N      0.448100000000     0.292940000000     0.006880000000    -0.175118   
N        N      0.759700000000     0.091160000000     0.951080000000    -0.175118   
N        N      0.648300000000     0.968110000000     0.013360000000    -0.175118   
N        N      0.722400000000     0.916040000000     0.960750000000    -0.175118   
N        N      0.441000000000     0.194290000000     0.453160000000    -0.175118   
N        N      0.431700000000     0.140410000000     0.523610000000    -0.175118   
N        N      0.631300000000     0.191990000000     0.512510000000    -0.175118   
N        N      0.765500000000     0.218840000000     0.664710000000    -0.175118   
N        N      0.663500000000     0.154350000000     0.763920000000    -0.175118   
N        N      0.760500000000     0.223290000000     0.792030000000    -0.175118   


