data_PEGBUA_original

_audit_creation_method RASPA-1.0
_audit_creation_date 2022-1-31
_audit_author_name 'Felipe Lopes de Oliveira <felipe.lopes.oliveira@ibm.com>'

_cell_length_a    10.6825
_cell_length_b    12.3388
_cell_length_c    17.126
_cell_angle_alpha 90
_cell_angle_beta  95.447
_cell_angle_gamma 90
_cell_volume      2247.17

_symmetry_cell_setting          triclinic
_symmetry_space_group_name_Hall 'P 1'
_symmetry_space_group_name_H-M  'P 1'
_symmetry_Int_Tables_number     1

_symmetry_equiv_pos_as_xyz 'x,y,z'

loop_
_atom_site_label
_atom_site_type_symbol
_atom_site_fract_x
_atom_site_fract_y
_atom_site_fract_z
_atom_site_charge
Zn       Zn     0.273100000000     0.263410000000     0.399090000000     0.342611   
Zn       Zn     0.793080000000     0.255010000000     0.543410000000     0.342611   
Zn       Zn     0.226900000000     0.763410000000     0.100910000000     0.342611   
Zn       Zn     0.706920000000     0.755010000000     0.956590000000     0.342611   
Zn       Zn     0.726900000000     0.736590000000     0.600910000000     0.342611   
Zn       Zn     0.206920000000     0.744990000000     0.456590000000     0.342611   
Zn       Zn     0.773100000000     0.236590000000     0.899090000000     0.342611   
Zn       Zn     0.293080000000     0.244990000000     0.043410000000     0.342611   
H        H      0.933100000000     0.363200000000     0.787300000000     0.172454   
H        H      0.991000000000     0.318200000000     0.710800000000     0.172454   
H        H      0.883800000000     0.409200000000     0.702500000000     0.172454   
H        H      0.520400000000     0.055500000000     0.644200000000     0.172454   
H        H      0.641800000000     0.015200000000     0.604700000000     0.172454   
H        H      0.528400000000     0.318400000000     0.338200000000     0.172454   
H        H      0.642700000000     0.361100000000     0.397400000000     0.172454   
H        H      0.658500000000     0.253200000000     0.347400000000     0.172454   
H        H      0.980400000000     0.006300000000     0.326200000000     0.172454   
H        H      0.072500000000     0.093900000000     0.293200000000     0.172454   
H        H      0.127200000000     0.004900000000     0.355300000000     0.172454   
H        H      0.043200000000     0.367400000000     0.574000000000     0.172454   
H        H      0.174300000000     0.304000000000     0.583500000000     0.172454   
H        H      0.382700000000     0.614900000000     0.363700000000     0.172454   
H        H      0.464300000000     0.512000000000     0.394100000000     0.172454   
H        H      0.357600000000     0.499500000000     0.322600000000     0.172454   
H        H      0.566900000000     0.863200000000     0.712700000000     0.172454   
H        H      0.509000000000     0.818200000000     0.789200000000     0.172454   
H        H      0.616200000000     0.909200000000     0.797500000000     0.172454   
H        H      0.979600000000     0.555500000000     0.855800000000     0.172454   
H        H      0.858200000000     0.515200000000     0.895300000000     0.172454   
H        H      0.971600000000     0.818400000000     0.161800000000     0.172454   
H        H      0.857300000000     0.861100000000     0.102600000000     0.172454   
H        H      0.841500000000     0.753200000000     0.152600000000     0.172454   
H        H      0.519600000000     0.506300000000     0.173800000000     0.172454   
H        H      0.427500000000     0.593900000000     0.206800000000     0.172454   
H        H      0.372800000000     0.504900000000     0.144700000000     0.172454   
H        H      0.456800000000     0.867400000000     0.926000000000     0.172454   
H        H      0.325700000000     0.804000000000     0.916500000000     0.172454   
H        H      0.117300000000     0.114900000000     0.136300000000     0.172454   
H        H      0.035700000000     0.012000000000     0.105900000000     0.172454   
H        H      0.142400000000     0.999500000000     0.177400000000     0.172454   
H        H      0.066900000000     0.636800000000     0.212700000000     0.172454   
H        H      0.009000000000     0.681800000000     0.289200000000     0.172454   
H        H      0.116200000000     0.590800000000     0.297500000000     0.172454   
H        H      0.479600000000     0.944500000000     0.355800000000     0.172454   
H        H      0.358200000000     0.984800000000     0.395300000000     0.172454   
H        H      0.471600000000     0.681600000000     0.661800000000     0.172454   
H        H      0.357300000000     0.638900000000     0.602600000000     0.172454   
H        H      0.341500000000     0.746800000000     0.652600000000     0.172454   
H        H      0.019600000000     0.993700000000     0.673800000000     0.172454   
H        H      0.927500000000     0.906100000000     0.706800000000     0.172454   
H        H      0.872800000000     0.995100000000     0.644700000000     0.172454   
H        H      0.956800000000     0.632600000000     0.426000000000     0.172454   
H        H      0.825700000000     0.696000000000     0.416500000000     0.172454   
H        H      0.617300000000     0.385100000000     0.636300000000     0.172454   
H        H      0.535700000000     0.488000000000     0.605900000000     0.172454   
H        H      0.642400000000     0.500500000000     0.677400000000     0.172454   
H        H      0.433100000000     0.136800000000     0.287300000000     0.172454   
H        H      0.491000000000     0.181800000000     0.210800000000     0.172454   
H        H      0.383800000000     0.090800000000     0.202500000000     0.172454   
H        H      0.020400000000     0.444500000000     0.144200000000     0.172454   
H        H      0.141800000000     0.484800000000     0.104700000000     0.172454   
H        H      0.028400000000     0.181600000000     0.838200000000     0.172454   
H        H      0.142700000000     0.138900000000     0.897400000000     0.172454   
H        H      0.158500000000     0.246800000000     0.847400000000     0.172454   
H        H      0.480400000000     0.493700000000     0.826200000000     0.172454   
H        H      0.572500000000     0.406100000000     0.793200000000     0.172454   
H        H      0.627200000000     0.495100000000     0.855300000000     0.172454   
H        H      0.543200000000     0.132600000000     0.074000000000     0.172454   
H        H      0.674300000000     0.196000000000     0.083500000000     0.172454   
H        H      0.882700000000     0.885100000000     0.863700000000     0.172454   
H        H      0.964300000000     0.988000000000     0.894100000000     0.172454   
H        H      0.857600000000     0.000500000000     0.822600000000     0.172454   
C        C      0.914400000000     0.344700000000     0.731780000000    -0.0958549  
C        C      0.816200000000     0.258660000000     0.723690000000    -0.0958549  
C        C      0.676800000000     0.147400000000     0.675870000000    -0.0958549  
C        C      0.594400000000     0.080400000000     0.618390000000    -0.0958549  
C        C      0.549200000000     0.139040000000     0.544160000000    -0.0958549  
C        C      0.553400000000     0.230560000000     0.439140000000    -0.0958549  
C        C      0.599700000000     0.296400000000     0.375070000000    -0.0958549  
C        C      0.054900000000     0.051400000000     0.339200000000    -0.0958549  
C        C      0.031800000000     0.125900000000     0.404450000000    -0.0958549  
C        C      0.055500000000     0.249490000000     0.491450000000    -0.0958549  
C        C      0.110500000000     0.336660000000     0.544740000000    -0.0958549  
C        C      0.170800000000     0.426840000000     0.503040000000    -0.0958549  
C        C      0.286100000000     0.510580000000     0.429230000000    -0.0958549  
C        C      0.381000000000     0.536500000000     0.372450000000    -0.0958549  
C        C      0.585600000000     0.844700000000     0.768220000000    -0.0958549  
C        C      0.683800000000     0.758660000000     0.776310000000    -0.0958549  
C        C      0.823200000000     0.647400000000     0.824130000000    -0.0958549  
C        C      0.905600000000     0.580400000000     0.881610000000    -0.0958549  
C        C      0.950800000000     0.639040000000     0.955840000000    -0.0958549  
C        C      0.946600000000     0.730560000000     0.060860000000    -0.0958549  
C        C      0.900300000000     0.796400000000     0.124930000000    -0.0958549  
C        C      0.445100000000     0.551400000000     0.160800000000    -0.0958549  
C        C      0.468200000000     0.625900000000     0.095550000000    -0.0958549  
C        C      0.444500000000     0.749490000000     0.008550000000    -0.0958549  
C        C      0.389500000000     0.836660000000     0.955260000000    -0.0958549  
C        C      0.329200000000     0.926840000000     0.996960000000    -0.0958549  
C        C      0.213900000000     0.010580000000     0.070770000000    -0.0958549  
C        C      0.119000000000     0.036500000000     0.127550000000    -0.0958549  
C        C      0.085600000000     0.655300000000     0.268220000000    -0.0958549  
C        C      0.183800000000     0.741340000000     0.276310000000    -0.0958549  
C        C      0.323200000000     0.852600000000     0.324130000000    -0.0958549  
C        C      0.405600000000     0.919600000000     0.381610000000    -0.0958549  
C        C      0.450800000000     0.860960000000     0.455840000000    -0.0958549  
C        C      0.446600000000     0.769440000000     0.560860000000    -0.0958549  
C        C      0.400300000000     0.703600000000     0.624930000000    -0.0958549  
C        C      0.945100000000     0.948600000000     0.660800000000    -0.0958549  
C        C      0.968200000000     0.874100000000     0.595550000000    -0.0958549  
C        C      0.944500000000     0.750510000000     0.508550000000    -0.0958549  
C        C      0.889500000000     0.663340000000     0.455260000000    -0.0958549  
C        C      0.829200000000     0.573160000000     0.496960000000    -0.0958549  
C        C      0.713900000000     0.489420000000     0.570770000000    -0.0958549  
C        C      0.619000000000     0.463500000000     0.627550000000    -0.0958549  
C        C      0.414400000000     0.155300000000     0.231780000000    -0.0958549  
C        C      0.316200000000     0.241340000000     0.223690000000    -0.0958549  
C        C      0.176800000000     0.352600000000     0.175870000000    -0.0958549  
C        C      0.094400000000     0.419600000000     0.118390000000    -0.0958549  
C        C      0.049200000000     0.360960000000     0.044160000000    -0.0958549  
C        C      0.053400000000     0.269440000000     0.939140000000    -0.0958549  
C        C      0.099700000000     0.203600000000     0.875070000000    -0.0958549  
C        C      0.554900000000     0.448600000000     0.839200000000    -0.0958549  
C        C      0.531800000000     0.374100000000     0.904450000000    -0.0958549  
C        C      0.555500000000     0.250510000000     0.991450000000    -0.0958549  
C        C      0.610500000000     0.163340000000     0.044740000000    -0.0958549  
C        C      0.670800000000     0.073160000000     0.003040000000    -0.0958549  
C        C      0.786100000000     0.989420000000     0.929230000000    -0.0958549  
C        C      0.881000000000     0.963500000000     0.872450000000    -0.0958549  
N        N      0.116790000000     0.200470000000     0.435720000000    -0.175209   
N        N      0.925500000000     0.126920000000     0.437770000000    -0.175209   
N        N      0.941990000000     0.207770000000     0.494470000000    -0.175209   
N        N      0.255250000000     0.409780000000     0.449350000000    -0.175209   
N        N      0.148910000000     0.529920000000     0.515860000000    -0.175209   
N        N      0.224330000000     0.584230000000     0.466640000000    -0.175209   
N        N      0.434590000000     0.200970000000     0.444750000000    -0.175209   
N        N      0.431510000000     0.141190000000     0.513460000000    -0.175209   
N        N      0.629230000000     0.193080000000     0.500350000000    -0.175209   
N        N      0.768850000000     0.215830000000     0.655060000000    -0.175209   
N        N      0.668770000000     0.144410000000     0.751740000000    -0.175209   
N        N      0.759640000000     0.217580000000     0.782840000000    -0.175209   
N        N      0.383210000000     0.700470000000     0.064280000000    -0.175209   
N        N      0.574500000000     0.626920000000     0.062230000000    -0.175209   
N        N      0.558010000000     0.707770000000     0.005530000000    -0.175209   
N        N      0.244750000000     0.909780000000     0.050650000000    -0.175209   
N        N      0.351090000000     0.029920000000     0.984140000000    -0.175209   
N        N      0.275670000000     0.084230000000     0.033360000000    -0.175209   
N        N      0.065410000000     0.700970000000     0.055250000000    -0.175209   
N        N      0.068490000000     0.641190000000     0.986540000000    -0.175209   
N        N      0.870770000000     0.693080000000     0.999650000000    -0.175209   
N        N      0.731150000000     0.715830000000     0.844940000000    -0.175209   
N        N      0.831230000000     0.644410000000     0.748260000000    -0.175209   
N        N      0.740360000000     0.717580000000     0.717160000000    -0.175209   
N        N      0.883210000000     0.799530000000     0.564280000000    -0.175209   
N        N      0.074500000000     0.873080000000     0.562230000000    -0.175209   
N        N      0.058010000000     0.792230000000     0.505530000000    -0.175209   
N        N      0.744750000000     0.590220000000     0.550650000000    -0.175209   
N        N      0.851090000000     0.470080000000     0.484140000000    -0.175209   
N        N      0.775670000000     0.415770000000     0.533360000000    -0.175209   
N        N      0.565410000000     0.799030000000     0.555250000000    -0.175209   
N        N      0.568490000000     0.858810000000     0.486540000000    -0.175209   
N        N      0.370770000000     0.806920000000     0.499650000000    -0.175209   
N        N      0.231150000000     0.784170000000     0.344940000000    -0.175209   
N        N      0.331230000000     0.855590000000     0.248260000000    -0.175209   
N        N      0.240360000000     0.782420000000     0.217160000000    -0.175209   
N        N      0.616790000000     0.299530000000     0.935720000000    -0.175209   
N        N      0.425500000000     0.373080000000     0.937770000000    -0.175209   
N        N      0.441990000000     0.292230000000     0.994470000000    -0.175209   
N        N      0.755250000000     0.090220000000     0.949350000000    -0.175209   
N        N      0.648910000000     0.970080000000     0.015860000000    -0.175209   
N        N      0.724330000000     0.915770000000     0.966640000000    -0.175209   
N        N      0.934590000000     0.299030000000     0.944750000000    -0.175209   
N        N      0.931510000000     0.358810000000     0.013460000000    -0.175209   
N        N      0.129230000000     0.306920000000     0.000350000000    -0.175209   
N        N      0.268850000000     0.284170000000     0.155060000000    -0.175209   
N        N      0.168770000000     0.355590000000     0.251740000000    -0.175209   
N        N      0.259640000000     0.282420000000     0.282840000000    -0.175209   


