data_PEGCEL_original

_audit_creation_method RASPA-1.0
_audit_creation_date 2022-1-31
_audit_author_name 'Felipe Lopes de Oliveira <felipe.lopes.oliveira@ibm.com>'

_cell_length_a    10.877
_cell_length_b    12.829
_cell_length_c    16.881
_cell_angle_alpha 90
_cell_angle_beta  94.445
_cell_angle_gamma 90
_cell_volume      2348.51

_symmetry_cell_setting          triclinic
_symmetry_space_group_name_Hall 'P 1'
_symmetry_space_group_name_H-M  'P 1'
_symmetry_Int_Tables_number     1

_symmetry_equiv_pos_as_xyz 'x,y,z'

loop_
_atom_site_label
_atom_site_type_symbol
_atom_site_fract_x
_atom_site_fract_y
_atom_site_fract_z
_atom_site_charge
Zn       Zn     0.276070000000     0.273140000000     0.405340000000     0.34088    
Zn       Zn     0.794730000000     0.260170000000     0.544910000000     0.34088    
Zn       Zn     0.223930000000     0.773140000000     0.094660000000     0.34088    
Zn       Zn     0.705270000000     0.760170000000     0.955090000000     0.34088    
Zn       Zn     0.723930000000     0.726860000000     0.594660000000     0.34088    
Zn       Zn     0.205270000000     0.739830000000     0.455090000000     0.34088    
Zn       Zn     0.776070000000     0.226860000000     0.905340000000     0.34088    
Zn       Zn     0.294730000000     0.239830000000     0.044910000000     0.34088    
H        H      0.933400000000     0.351600000000     0.793300000000     0.171633   
H        H      0.993200000000     0.306100000000     0.716800000000     0.171633   
H        H      0.891500000000     0.396300000000     0.706900000000     0.171633   
H        H      0.525700000000     0.063600000000     0.645600000000     0.171633   
H        H      0.643600000000     0.028600000000     0.601200000000     0.171633   
H        H      0.522300000000     0.334800000000     0.343900000000     0.171633   
H        H      0.628000000000     0.381700000000     0.404900000000     0.171633   
H        H      0.655500000000     0.281100000000     0.353100000000     0.171633   
H        H      0.016400000000     0.005400000000     0.343800000000     0.171633   
H        H      0.110600000000     0.087400000000     0.310500000000     0.171633   
H        H      0.155900000000     0.010500000000     0.381500000000     0.171633   
H        H      0.033600000000     0.377200000000     0.574400000000     0.171633   
H        H      0.163900000000     0.320100000000     0.589200000000     0.171633   
H        H      0.369900000000     0.612900000000     0.359100000000     0.171633   
H        H      0.449300000000     0.513100000000     0.388000000000     0.171633   
H        H      0.343300000000     0.502400000000     0.317300000000     0.171633   
H        H      0.566600000000     0.851600000000     0.706700000000     0.171633   
H        H      0.506800000000     0.806100000000     0.783200000000     0.171633   
H        H      0.608500000000     0.896300000000     0.793100000000     0.171633   
H        H      0.974300000000     0.563600000000     0.854400000000     0.171633   
H        H      0.856400000000     0.528600000000     0.898800000000     0.171633   
H        H      0.977700000000     0.834800000000     0.156100000000     0.171633   
H        H      0.872000000000     0.881700000000     0.095100000000     0.171633   
H        H      0.844500000000     0.781100000000     0.146900000000     0.171633   
H        H      0.483600000000     0.505400000000     0.156200000000     0.171633   
H        H      0.389400000000     0.587400000000     0.189500000000     0.171633   
H        H      0.344100000000     0.510500000000     0.118500000000     0.171633   
H        H      0.466400000000     0.877200000000     0.925600000000     0.171633   
H        H      0.336100000000     0.820100000000     0.910800000000     0.171633   
H        H      0.130100000000     0.112900000000     0.140900000000     0.171633   
H        H      0.050700000000     0.013100000000     0.112000000000     0.171633   
H        H      0.156700000000     0.002400000000     0.182700000000     0.171633   
H        H      0.066600000000     0.648400000000     0.206700000000     0.171633   
H        H      0.006800000000     0.693900000000     0.283200000000     0.171633   
H        H      0.108500000000     0.603700000000     0.293100000000     0.171633   
H        H      0.474300000000     0.936400000000     0.354400000000     0.171633   
H        H      0.356400000000     0.971400000000     0.398800000000     0.171633   
H        H      0.477700000000     0.665200000000     0.656100000000     0.171633   
H        H      0.372000000000     0.618300000000     0.595100000000     0.171633   
H        H      0.344500000000     0.718900000000     0.646900000000     0.171633   
H        H      0.983600000000     0.994600000000     0.656200000000     0.171633   
H        H      0.889400000000     0.912600000000     0.689500000000     0.171633   
H        H      0.844100000000     0.989500000000     0.618500000000     0.171633   
H        H      0.966400000000     0.622800000000     0.425600000000     0.171633   
H        H      0.836100000000     0.679900000000     0.410800000000     0.171633   
H        H      0.630100000000     0.387100000000     0.640900000000     0.171633   
H        H      0.550700000000     0.486900000000     0.612000000000     0.171633   
H        H      0.656700000000     0.497600000000     0.682700000000     0.171633   
H        H      0.433400000000     0.148400000000     0.293300000000     0.171633   
H        H      0.493200000000     0.193900000000     0.216800000000     0.171633   
H        H      0.391500000000     0.103700000000     0.206900000000     0.171633   
H        H      0.025700000000     0.436400000000     0.145600000000     0.171633   
H        H      0.143600000000     0.471400000000     0.101200000000     0.171633   
H        H      0.022300000000     0.165200000000     0.843900000000     0.171633   
H        H      0.128000000000     0.118300000000     0.904900000000     0.171633   
H        H      0.155500000000     0.218900000000     0.853100000000     0.171633   
H        H      0.516400000000     0.494600000000     0.843800000000     0.171633   
H        H      0.610600000000     0.412600000000     0.810500000000     0.171633   
H        H      0.655900000000     0.489500000000     0.881500000000     0.171633   
H        H      0.533600000000     0.122800000000     0.074400000000     0.171633   
H        H      0.663900000000     0.179900000000     0.089200000000     0.171633   
H        H      0.869900000000     0.887100000000     0.859100000000     0.171633   
H        H      0.949300000000     0.986900000000     0.888000000000     0.171633   
H        H      0.843300000000     0.997600000000     0.817300000000     0.171633   
C        C      0.917600000000     0.333700000000     0.737000000000    -0.0948758  
C        C      0.818400000000     0.253400000000     0.727700000000    -0.0948758  
C        C      0.679900000000     0.151000000000     0.678000000000    -0.0948758  
C        C      0.597500000000     0.089800000000     0.618800000000    -0.0948758  
C        C      0.551800000000     0.151500000000     0.547600000000    -0.0948758  
C        C      0.551000000000     0.248800000000     0.445200000000    -0.0948758  
C        C      0.592800000000     0.317500000000     0.381300000000    -0.0948758  
C        C      0.086300000000     0.051600000000     0.358200000000    -0.0948758  
C        C      0.050200000000     0.129900000000     0.416800000000    -0.0948758  
C        C      0.056600000000     0.258800000000     0.496000000000    -0.0948758  
C        C      0.103500000000     0.347600000000     0.547500000000    -0.0948758  
C        C      0.163500000000     0.433800000000     0.504200000000    -0.0948758  
C        C      0.275800000000     0.512900000000     0.426800000000    -0.0948758  
C        C      0.367500000000     0.537400000000     0.367700000000    -0.0948758  
C        C      0.582400000000     0.833700000000     0.763000000000    -0.0948758  
C        C      0.681600000000     0.753400000000     0.772300000000    -0.0948758  
C        C      0.820100000000     0.651000000000     0.822000000000    -0.0948758  
C        C      0.902500000000     0.589800000000     0.881200000000    -0.0948758  
C        C      0.948200000000     0.651500000000     0.952400000000    -0.0948758  
C        C      0.949000000000     0.748800000000     0.054800000000    -0.0948758  
C        C      0.907200000000     0.817500000000     0.118700000000    -0.0948758  
C        C      0.413700000000     0.551600000000     0.141800000000    -0.0948758  
C        C      0.449800000000     0.629900000000     0.083200000000    -0.0948758  
C        C      0.443400000000     0.758800000000     0.004000000000    -0.0948758  
C        C      0.396500000000     0.847600000000     0.952500000000    -0.0948758  
C        C      0.336500000000     0.933800000000     0.995800000000    -0.0948758  
C        C      0.224200000000     0.012900000000     0.073200000000    -0.0948758  
C        C      0.132500000000     0.037400000000     0.132300000000    -0.0948758  
C        C      0.082400000000     0.666300000000     0.263000000000    -0.0948758  
C        C      0.181600000000     0.746600000000     0.272300000000    -0.0948758  
C        C      0.320100000000     0.849000000000     0.322000000000    -0.0948758  
C        C      0.402500000000     0.910200000000     0.381200000000    -0.0948758  
C        C      0.448200000000     0.848500000000     0.452400000000    -0.0948758  
C        C      0.449000000000     0.751200000000     0.554800000000    -0.0948758  
C        C      0.407200000000     0.682500000000     0.618700000000    -0.0948758  
C        C      0.913700000000     0.948400000000     0.641800000000    -0.0948758  
C        C      0.949800000000     0.870100000000     0.583200000000    -0.0948758  
C        C      0.943400000000     0.741200000000     0.504000000000    -0.0948758  
C        C      0.896500000000     0.652400000000     0.452500000000    -0.0948758  
C        C      0.836500000000     0.566200000000     0.495800000000    -0.0948758  
C        C      0.724200000000     0.487100000000     0.573200000000    -0.0948758  
C        C      0.632500000000     0.462600000000     0.632300000000    -0.0948758  
C        C      0.417600000000     0.166300000000     0.237000000000    -0.0948758  
C        C      0.318400000000     0.246600000000     0.227700000000    -0.0948758  
C        C      0.179900000000     0.349000000000     0.178000000000    -0.0948758  
C        C      0.097500000000     0.410200000000     0.118800000000    -0.0948758  
C        C      0.051800000000     0.348500000000     0.047600000000    -0.0948758  
C        C      0.051000000000     0.251200000000     0.945200000000    -0.0948758  
C        C      0.092800000000     0.182500000000     0.881300000000    -0.0948758  
C        C      0.586300000000     0.448400000000     0.858200000000    -0.0948758  
C        C      0.550200000000     0.370100000000     0.916800000000    -0.0948758  
C        C      0.556600000000     0.241200000000     0.996000000000    -0.0948758  
C        C      0.603500000000     0.152400000000     0.047500000000    -0.0948758  
C        C      0.663500000000     0.066200000000     0.004200000000    -0.0948758  
C        C      0.775800000000     0.987100000000     0.926800000000    -0.0948758  
C        C      0.867500000000     0.962600000000     0.867700000000    -0.0948758  
N        N      0.124200000000     0.209100000000     0.444600000000    -0.174969   
N        N      0.941200000000     0.130400000000     0.447500000000    -0.174969   
N        N      0.947200000000     0.214800000000     0.498700000000    -0.174969   
N        N      0.247000000000     0.416100000000     0.449560000000    -0.174969   
N        N      0.141800000000     0.532600000000     0.515740000000    -0.174969   
N        N      0.214900000000     0.584500000000     0.464500000000    -0.174969   
N        N      0.435900000000     0.217800000000     0.452000000000    -0.174969   
N        N      0.435500000000     0.154300000000     0.519000000000    -0.174969   
N        N      0.627600000000     0.209300000000     0.504250000000    -0.174969   
N        N      0.770800000000     0.216500000000     0.657420000000    -0.174969   
N        N      0.671400000000     0.144800000000     0.755000000000    -0.174969   
N        N      0.761700000000     0.212800000000     0.787200000000    -0.174969   
N        N      0.375800000000     0.709100000000     0.055400000000    -0.174969   
N        N      0.558800000000     0.630400000000     0.052500000000    -0.174969   
N        N      0.552800000000     0.714800000000     0.001300000000    -0.174969   
N        N      0.253000000000     0.916100000000     0.050440000000    -0.174969   
N        N      0.358200000000     0.032600000000     0.984260000000    -0.174969   
N        N      0.285100000000     0.084500000000     0.035500000000    -0.174969   
N        N      0.064100000000     0.717800000000     0.048000000000    -0.174969   
N        N      0.064500000000     0.654300000000     0.981000000000    -0.174969   
N        N      0.872400000000     0.709300000000     0.995750000000    -0.174969   
N        N      0.729200000000     0.716500000000     0.842580000000    -0.174969   
N        N      0.828600000000     0.644800000000     0.745000000000    -0.174969   
N        N      0.738300000000     0.712800000000     0.712800000000    -0.174969   
N        N      0.875800000000     0.790900000000     0.555400000000    -0.174969   
N        N      0.058800000000     0.869600000000     0.552500000000    -0.174969   
N        N      0.052800000000     0.785200000000     0.501300000000    -0.174969   
N        N      0.753000000000     0.583900000000     0.550440000000    -0.174969   
N        N      0.858200000000     0.467400000000     0.484260000000    -0.174969   
N        N      0.785100000000     0.415500000000     0.535500000000    -0.174969   
N        N      0.564100000000     0.782200000000     0.548000000000    -0.174969   
N        N      0.564500000000     0.845700000000     0.481000000000    -0.174969   
N        N      0.372400000000     0.790700000000     0.495750000000    -0.174969   
N        N      0.229200000000     0.783500000000     0.342580000000    -0.174969   
N        N      0.328600000000     0.855200000000     0.245000000000    -0.174969   
N        N      0.238300000000     0.787200000000     0.212800000000    -0.174969   
N        N      0.624200000000     0.290900000000     0.944600000000    -0.174969   
N        N      0.441200000000     0.369600000000     0.947500000000    -0.174969   
N        N      0.447200000000     0.285200000000     0.998700000000    -0.174969   
N        N      0.747000000000     0.083900000000     0.949560000000    -0.174969   
N        N      0.641800000000     0.967400000000     0.015740000000    -0.174969   
N        N      0.714900000000     0.915500000000     0.964500000000    -0.174969   
N        N      0.935900000000     0.282200000000     0.952000000000    -0.174969   
N        N      0.935500000000     0.345700000000     0.019000000000    -0.174969   
N        N      0.127600000000     0.290700000000     0.004250000000    -0.174969   
N        N      0.270800000000     0.283500000000     0.157420000000    -0.174969   
N        N      0.171400000000     0.355200000000     0.255000000000    -0.174969   
N        N      0.261700000000     0.287200000000     0.287200000000    -0.174969   


