data_PEGCAH_original

_audit_creation_method RASPA-1.0
_audit_creation_date 2022-1-28
_audit_author_name 'Felipe Lopes de Oliveira <felipe.lopes.oliveira@ibm.com>'

_cell_length_a    10.8291
_cell_length_b    12.529
_cell_length_c    16.848
_cell_angle_alpha 90
_cell_angle_beta  94.993
_cell_angle_gamma 90
_cell_volume      2277.23

_symmetry_cell_setting          triclinic
_symmetry_space_group_name_Hall 'P 1'
_symmetry_space_group_name_H-M  'P 1'
_symmetry_Int_Tables_number     1

_symmetry_equiv_pos_as_xyz 'x,y,z'

loop_
_atom_site_label
_atom_site_type_symbol
_atom_site_fract_x
_atom_site_fract_y
_atom_site_fract_z
_atom_site_charge
Zn       Zn     0.275400000000     0.267850000000     0.404420000000     0.340906   
Zn       Zn     0.794210000000     0.256730000000     0.543270000000     0.340906   
Zn       Zn     0.224600000000     0.767850000000     0.095580000000     0.340906   
Zn       Zn     0.705790000000     0.756730000000     0.956730000000     0.340906   
Zn       Zn     0.724600000000     0.732150000000     0.595580000000     0.340906   
Zn       Zn     0.205790000000     0.743270000000     0.456730000000     0.340906   
Zn       Zn     0.775400000000     0.232150000000     0.904420000000     0.340906   
Zn       Zn     0.294210000000     0.243270000000     0.043270000000     0.340906   
H        H      0.935100000000     0.356000000000     0.792200000000     0.17297    
H        H      0.988400000000     0.316700000000     0.711500000000     0.17297    
H        H      0.882900000000     0.406400000000     0.708600000000     0.17297    
H        H      0.531200000000     0.051700000000     0.644800000000     0.17297    
H        H      0.651200000000     0.019800000000     0.601100000000     0.17297    
H        H      0.520200000000     0.330000000000     0.342400000000     0.17297    
H        H      0.635700000000     0.370500000000     0.400300000000     0.17297    
H        H      0.649000000000     0.266800000000     0.346200000000     0.17297    
H        H      0.999500000000     0.028200000000     0.317000000000     0.17297    
H        H      0.133100000000     0.082500000000     0.315500000000     0.17297    
H        H      0.113700000000     0.985700000000     0.375200000000     0.17297    
H        H      0.166700000000     0.312700000000     0.589200000000     0.17297    
H        H      0.036500000000     0.373100000000     0.575600000000     0.17297    
H        H      0.369300000000     0.613100000000     0.358400000000     0.17297    
H        H      0.459000000000     0.523100000000     0.398700000000     0.17297    
H        H      0.360600000000     0.493100000000     0.325700000000     0.17297    
H        H      0.564900000000     0.856000000000     0.707800000000     0.17297    
H        H      0.511600000000     0.816700000000     0.788500000000     0.17297    
H        H      0.617100000000     0.906400000000     0.791400000000     0.17297    
H        H      0.968800000000     0.551700000000     0.855200000000     0.17297    
H        H      0.848800000000     0.519800000000     0.898900000000     0.17297    
H        H      0.979800000000     0.830000000000     0.157600000000     0.17297    
H        H      0.864300000000     0.870500000000     0.099700000000     0.17297    
H        H      0.851000000000     0.766800000000     0.153800000000     0.17297    
H        H      0.500500000000     0.528200000000     0.183000000000     0.17297    
H        H      0.366900000000     0.582500000000     0.184500000000     0.17297    
H        H      0.386300000000     0.485700000000     0.124800000000     0.17297    
H        H      0.333300000000     0.812700000000     0.910800000000     0.17297    
H        H      0.463500000000     0.873100000000     0.924400000000     0.17297    
H        H      0.130700000000     0.113100000000     0.141600000000     0.17297    
H        H      0.041000000000     0.023100000000     0.101300000000     0.17297    
H        H      0.139400000000     0.993100000000     0.174300000000     0.17297    
H        H      0.064900000000     0.644000000000     0.207800000000     0.17297    
H        H      0.011600000000     0.683300000000     0.288500000000     0.17297    
H        H      0.117100000000     0.593600000000     0.291400000000     0.17297    
H        H      0.468800000000     0.948300000000     0.355200000000     0.17297    
H        H      0.348800000000     0.980200000000     0.398900000000     0.17297    
H        H      0.479800000000     0.670000000000     0.657600000000     0.17297    
H        H      0.364300000000     0.629500000000     0.599700000000     0.17297    
H        H      0.351000000000     0.733200000000     0.653800000000     0.17297    
H        H      0.000500000000     0.971800000000     0.683000000000     0.17297    
H        H      0.866900000000     0.917500000000     0.684500000000     0.17297    
H        H      0.886300000000     0.014300000000     0.624800000000     0.17297    
H        H      0.833300000000     0.687300000000     0.410800000000     0.17297    
H        H      0.963500000000     0.626900000000     0.424400000000     0.17297    
H        H      0.630700000000     0.386900000000     0.641600000000     0.17297    
H        H      0.541000000000     0.476900000000     0.601300000000     0.17297    
H        H      0.639400000000     0.506900000000     0.674300000000     0.17297    
H        H      0.435100000000     0.144000000000     0.292200000000     0.17297    
H        H      0.488400000000     0.183300000000     0.211500000000     0.17297    
H        H      0.382900000000     0.093600000000     0.208600000000     0.17297    
H        H      0.031200000000     0.448300000000     0.144800000000     0.17297    
H        H      0.151200000000     0.480200000000     0.101100000000     0.17297    
H        H      0.020200000000     0.170000000000     0.842400000000     0.17297    
H        H      0.135700000000     0.129500000000     0.900300000000     0.17297    
H        H      0.149000000000     0.233200000000     0.846200000000     0.17297    
H        H      0.499500000000     0.471800000000     0.817000000000     0.17297    
H        H      0.633100000000     0.417500000000     0.815500000000     0.17297    
H        H      0.613700000000     0.514300000000     0.875200000000     0.17297    
H        H      0.666700000000     0.187300000000     0.089200000000     0.17297    
H        H      0.536500000000     0.126900000000     0.075600000000     0.17297    
H        H      0.869300000000     0.886900000000     0.858400000000     0.17297    
H        H      0.959000000000     0.976900000000     0.898700000000     0.17297    
H        H      0.860600000000     0.006900000000     0.825700000000     0.17297    
C        C      0.914200000000     0.341200000000     0.735500000000    -0.0955843  
C        C      0.816700000000     0.256500000000     0.726500000000    -0.0955843  
C        C      0.681500000000     0.146500000000     0.677500000000    -0.0955843  
C        C      0.601900000000     0.080900000000     0.618200000000    -0.0955843  
C        C      0.553000000000     0.142500000000     0.546100000000    -0.0955843  
C        C      0.551700000000     0.239100000000     0.442200000000    -0.0955843  
C        C      0.592700000000     0.307400000000     0.377200000000    -0.0955843  
C        C      0.075100000000     0.049100000000     0.349600000000    -0.0955843  
C        C      0.043400000000     0.126000000000     0.411500000000    -0.0955843  
C        C      0.055900000000     0.253900000000     0.494600000000    -0.0955843  
C        C      0.105500000000     0.342600000000     0.548000000000    -0.0955843  
C        C      0.165900000000     0.430500000000     0.505100000000    -0.0955843  
C        C      0.282000000000     0.512500000000     0.430300000000    -0.0955843  
C        C      0.375700000000     0.537600000000     0.373400000000    -0.0955843  
C        C      0.585800000000     0.841200000000     0.764500000000    -0.0955843  
C        C      0.683300000000     0.756500000000     0.773500000000    -0.0955843  
C        C      0.818500000000     0.646500000000     0.822500000000    -0.0955843  
C        C      0.898100000000     0.580900000000     0.881800000000    -0.0955843  
C        C      0.947000000000     0.642500000000     0.953900000000    -0.0955843  
C        C      0.948300000000     0.739100000000     0.057800000000    -0.0955843  
C        C      0.907300000000     0.807400000000     0.122800000000    -0.0955843  
C        C      0.424900000000     0.549100000000     0.150400000000    -0.0955843  
C        C      0.456600000000     0.626000000000     0.088500000000    -0.0955843  
C        C      0.444100000000     0.753900000000     0.005400000000    -0.0955843  
C        C      0.394500000000     0.842600000000     0.952000000000    -0.0955843  
C        C      0.334100000000     0.930500000000     0.994900000000    -0.0955843  
C        C      0.218000000000     0.012500000000     0.069700000000    -0.0955843  
C        C      0.124300000000     0.037600000000     0.126600000000    -0.0955843  
C        C      0.085800000000     0.658800000000     0.264500000000    -0.0955843  
C        C      0.183300000000     0.743500000000     0.273500000000    -0.0955843  
C        C      0.318500000000     0.853500000000     0.322500000000    -0.0955843  
C        C      0.398100000000     0.919100000000     0.381800000000    -0.0955843  
C        C      0.447000000000     0.857500000000     0.453900000000    -0.0955843  
C        C      0.448300000000     0.760900000000     0.557800000000    -0.0955843  
C        C      0.407300000000     0.692600000000     0.622800000000    -0.0955843  
C        C      0.924900000000     0.950900000000     0.650400000000    -0.0955843  
C        C      0.956600000000     0.874000000000     0.588500000000    -0.0955843  
C        C      0.944100000000     0.746100000000     0.505400000000    -0.0955843  
C        C      0.894500000000     0.657400000000     0.452000000000    -0.0955843  
C        C      0.834100000000     0.569500000000     0.494900000000    -0.0955843  
C        C      0.718000000000     0.487500000000     0.569700000000    -0.0955843  
C        C      0.624300000000     0.462400000000     0.626600000000    -0.0955843  
C        C      0.414200000000     0.158800000000     0.235500000000    -0.0955843  
C        C      0.316700000000     0.243500000000     0.226500000000    -0.0955843  
C        C      0.181500000000     0.353500000000     0.177500000000    -0.0955843  
C        C      0.101900000000     0.419100000000     0.118200000000    -0.0955843  
C        C      0.053000000000     0.357500000000     0.046100000000    -0.0955843  
C        C      0.051700000000     0.260900000000     0.942200000000    -0.0955843  
C        C      0.092700000000     0.192600000000     0.877200000000    -0.0955843  
C        C      0.575100000000     0.450900000000     0.849600000000    -0.0955843  
C        C      0.543400000000     0.374000000000     0.911500000000    -0.0955843  
C        C      0.555900000000     0.246100000000     0.994600000000    -0.0955843  
C        C      0.605500000000     0.157400000000     0.048000000000    -0.0955843  
C        C      0.665900000000     0.069500000000     0.005100000000    -0.0955843  
C        C      0.782000000000     0.987500000000     0.930300000000    -0.0955843  
C        C      0.875700000000     0.962400000000     0.873400000000    -0.0955843  
N        N      0.121700000000     0.204600000000     0.441600000000    -0.175929   
N        N      0.936800000000     0.126100000000     0.442700000000    -0.175929   
N        N      0.945100000000     0.209600000000     0.497100000000    -0.175929   
N        N      0.251600000000     0.412800000000     0.452140000000    -0.175929   
N        N      0.143700000000     0.532200000000     0.517300000000    -0.175929   
N        N      0.219100000000     0.585000000000     0.467200000000    -0.175929   
N        N      0.435500000000     0.207800000000     0.449400000000    -0.175929   
N        N      0.436600000000     0.144700000000     0.517500000000    -0.175929   
N        N      0.628900000000     0.200100000000     0.501600000000    -0.175929   
N        N      0.771200000000     0.215700000000     0.656500000000    -0.175929   
N        N      0.673400000000     0.142500000000     0.754400000000    -0.175929   
N        N      0.761700000000     0.214800000000     0.785900000000    -0.175929   
N        N      0.378300000000     0.704600000000     0.058400000000    -0.175929   
N        N      0.563200000000     0.626100000000     0.057300000000    -0.175929   
N        N      0.554900000000     0.709600000000     0.002900000000    -0.175929   
N        N      0.248400000000     0.912800000000     0.047860000000    -0.175929   
N        N      0.356300000000     0.032200000000     0.982700000000    -0.175929   
N        N      0.280900000000     0.085000000000     0.032800000000    -0.175929   
N        N      0.064500000000     0.707800000000     0.050600000000    -0.175929   
N        N      0.063400000000     0.644700000000     0.982500000000    -0.175929   
N        N      0.871100000000     0.700100000000     0.998400000000    -0.175929   
N        N      0.728800000000     0.715700000000     0.843500000000    -0.175929   
N        N      0.826600000000     0.642500000000     0.745600000000    -0.175929   
N        N      0.738300000000     0.714800000000     0.714100000000    -0.175929   
N        N      0.878300000000     0.795400000000     0.558400000000    -0.175929   
N        N      0.063200000000     0.873900000000     0.557300000000    -0.175929   
N        N      0.054900000000     0.790400000000     0.502900000000    -0.175929   
N        N      0.748400000000     0.587200000000     0.547860000000    -0.175929   
N        N      0.856300000000     0.467800000000     0.482700000000    -0.175929   
N        N      0.780900000000     0.415000000000     0.532800000000    -0.175929   
N        N      0.564500000000     0.792200000000     0.550600000000    -0.175929   
N        N      0.563400000000     0.855300000000     0.482500000000    -0.175929   
N        N      0.371100000000     0.799900000000     0.498400000000    -0.175929   
N        N      0.228800000000     0.784300000000     0.343500000000    -0.175929   
N        N      0.326600000000     0.857500000000     0.245600000000    -0.175929   
N        N      0.238300000000     0.785200000000     0.214100000000    -0.175929   
N        N      0.621700000000     0.295400000000     0.941600000000    -0.175929   
N        N      0.436800000000     0.373900000000     0.942700000000    -0.175929   
N        N      0.445100000000     0.290400000000     0.997100000000    -0.175929   
N        N      0.751600000000     0.087200000000     0.952140000000    -0.175929   
N        N      0.643700000000     0.967800000000     0.017300000000    -0.175929   
N        N      0.719100000000     0.915000000000     0.967200000000    -0.175929   
N        N      0.935500000000     0.292200000000     0.949400000000    -0.175929   
N        N      0.936600000000     0.355300000000     0.017500000000    -0.175929   
N        N      0.128900000000     0.299900000000     0.001600000000    -0.175929   
N        N      0.271200000000     0.284300000000     0.156500000000    -0.175929   
N        N      0.173400000000     0.357500000000     0.254400000000    -0.175929   
N        N      0.261700000000     0.285200000000     0.285900000000    -0.175929   


