data_PEJFOA_original

_audit_creation_method RASPA-1.0
_audit_creation_date 2022-1-31
_audit_author_name 'Felipe Lopes de Oliveira <felipe.lopes.oliveira@ibm.com>'

_cell_length_a    9.039
_cell_length_b    15.641
_cell_length_c    19.37
_cell_angle_alpha 90
_cell_angle_beta  90
_cell_angle_gamma 90
_cell_volume      2738.51

_symmetry_cell_setting          triclinic
_symmetry_space_group_name_Hall 'P 1'
_symmetry_space_group_name_H-M  'P 1'
_symmetry_Int_Tables_number     1

_symmetry_equiv_pos_as_xyz 'x,y,z'

loop_
_atom_site_label
_atom_site_type_symbol
_atom_site_fract_x
_atom_site_fract_y
_atom_site_fract_z
_atom_site_charge
Ga       Ga     0.387500000000     0.887150000000     0.588710000000     4.00552    
Ga       Ga     0.934200000000     0.867030000000     0.502530000000     4.00552    
Ga       Ga     0.112500000000     0.387150000000     0.411290000000     4.00552    
Ga       Ga     0.565800000000     0.367030000000     0.497470000000     4.00552    
Ga       Ga     0.612500000000     0.112850000000     0.088710000000     4.00552    
Ga       Ga     0.065800000000     0.132970000000     0.002530000000     4.00552    
Ga       Ga     0.887500000000     0.612850000000     0.911290000000     4.00552    
Ga       Ga     0.434200000000     0.632970000000     0.997470000000     4.00552    
Ga       Ga     0.612500000000     0.112850000000     0.411290000000     4.00552    
Ga       Ga     0.065800000000     0.132970000000     0.497470000000     4.00552    
Ga       Ga     0.887500000000     0.612850000000     0.588710000000     4.00552    
Ga       Ga     0.434200000000     0.632970000000     0.502530000000     4.00552    
Ga       Ga     0.387500000000     0.887150000000     0.911290000000     4.00552    
Ga       Ga     0.934200000000     0.867030000000     0.997470000000     4.00552    
Ga       Ga     0.112500000000     0.387150000000     0.088710000000     4.00552    
Ga       Ga     0.565800000000     0.367030000000     0.002530000000     4.00552    
Ga       Ga     0.147600000000     0.071100000000     0.750000000000     4.00552    
Ga       Ga     0.352400000000     0.571100000000     0.250000000000     4.00552    
Ga       Ga     0.852400000000     0.928900000000     0.250000000000     4.00552    
Ga       Ga     0.647600000000     0.428900000000     0.750000000000     4.00552    
P        P      0.158900000000     0.729200000000     0.541400000000     1.04325    
P        P      0.073100000000     0.985400000000     0.604800000000     1.04325    
P        P      0.341100000000     0.229200000000     0.458600000000     1.04325    
P        P      0.426900000000     0.485400000000     0.395200000000     1.04325    
P        P      0.841100000000     0.270800000000     0.041400000000     1.04325    
P        P      0.926900000000     0.014600000000     0.104800000000     1.04325    
P        P      0.658900000000     0.770800000000     0.958600000000     1.04325    
P        P      0.573100000000     0.514600000000     0.895200000000     1.04325    
P        P      0.841100000000     0.270800000000     0.458600000000     1.04325    
P        P      0.926900000000     0.014600000000     0.395200000000     1.04325    
P        P      0.658900000000     0.770800000000     0.541400000000     1.04325    
P        P      0.573100000000     0.514600000000     0.604800000000     1.04325    
P        P      0.158900000000     0.729200000000     0.958600000000     1.04325    
P        P      0.073100000000     0.985400000000     0.895200000000     1.04325    
P        P      0.341100000000     0.229200000000     0.041400000000     1.04325    
P        P      0.426900000000     0.485400000000     0.104800000000     1.04325    
P        P      0.411300000000     0.941600000000     0.750000000000     1.04325    
P        P      0.088700000000     0.441600000000     0.250000000000     1.04325    
P        P      0.588700000000     0.058400000000     0.250000000000     1.04325    
P        P      0.911300000000     0.558400000000     0.750000000000     1.04325    
C        C      0.466800000000     0.973100000000     0.469300000000     0.360429   
C        C      0.033200000000     0.473100000000     0.530700000000     0.360429   
C        C      0.533200000000     0.026900000000     0.969300000000     0.360429   
C        C      0.966800000000     0.526900000000     0.030700000000     0.360429   
C        C      0.533200000000     0.026900000000     0.530700000000     0.360429   
C        C      0.966800000000     0.526900000000     0.469300000000     0.360429   
C        C      0.466800000000     0.973100000000     0.030700000000     0.360429   
C        C      0.033200000000     0.473100000000     0.969300000000     0.360429   
O        O      0.409900000000     0.904200000000     0.484300000000    -1.08186    
O        O      0.486900000000     0.005200000000     0.410100000000    -1.08186    
O        O      0.375200000000     0.888200000000     0.687000000000    -1.08186    
O        O      0.222200000000     0.965800000000     0.576400000000    -1.08186    
O        O      0.265000000000     0.786800000000     0.581500000000    -1.08186    
O        O      0.242500000000     0.665600000000     0.494700000000    -1.08186    
O        O      0.061100000000     0.682300000000     0.593100000000    -1.08186    
O        O      0.062900000000     0.779300000000     0.489500000000    -1.08186    
O        O      0.964000000000     0.910600000000     0.587700000000    -1.08186    
O        O      0.012800000000     0.067800000000     0.569000000000    -1.08186    
O        O      0.067700000000     0.995600000000     0.682300000000    -1.08186    
O        O      0.090100000000     0.404200000000     0.515700000000    -1.08186    
O        O      0.013100000000     0.505200000000     0.589900000000    -1.08186    
O        O      0.124800000000     0.388200000000     0.313000000000    -1.08186    
O        O      0.277800000000     0.465800000000     0.423600000000    -1.08186    
O        O      0.235000000000     0.286800000000     0.418500000000    -1.08186    
O        O      0.257500000000     0.165600000000     0.505300000000    -1.08186    
O        O      0.438900000000     0.182300000000     0.406900000000    -1.08186    
O        O      0.437100000000     0.279300000000     0.510500000000    -1.08186    
O        O      0.536000000000     0.410600000000     0.412300000000    -1.08186    
O        O      0.487200000000     0.567800000000     0.431000000000    -1.08186    
O        O      0.432300000000     0.495600000000     0.317700000000    -1.08186    
O        O      0.590100000000     0.095800000000     0.984300000000    -1.08186    
O        O      0.513100000000     0.994800000000     0.910100000000    -1.08186    
O        O      0.624800000000     0.111800000000     0.187000000000    -1.08186    
O        O      0.777800000000     0.034200000000     0.076400000000    -1.08186    
O        O      0.735000000000     0.213200000000     0.081500000000    -1.08186    
O        O      0.757500000000     0.334400000000     0.994700000000    -1.08186    
O        O      0.938900000000     0.317700000000     0.093100000000    -1.08186    
O        O      0.937100000000     0.220700000000     0.989500000000    -1.08186    
O        O      0.036000000000     0.089400000000     0.087700000000    -1.08186    
O        O      0.987200000000     0.932200000000     0.069000000000    -1.08186    
O        O      0.932300000000     0.004400000000     0.182300000000    -1.08186    
O        O      0.909900000000     0.595800000000     0.015700000000    -1.08186    
O        O      0.986900000000     0.494800000000     0.089900000000    -1.08186    
O        O      0.875200000000     0.611800000000     0.813000000000    -1.08186    
O        O      0.722200000000     0.534200000000     0.923600000000    -1.08186    
O        O      0.765000000000     0.713200000000     0.918500000000    -1.08186    
O        O      0.742500000000     0.834400000000     0.005300000000    -1.08186    
O        O      0.561100000000     0.817700000000     0.906900000000    -1.08186    
O        O      0.562900000000     0.720700000000     0.010500000000    -1.08186    
O        O      0.464000000000     0.589400000000     0.912300000000    -1.08186    
O        O      0.512800000000     0.432200000000     0.931000000000    -1.08186    
O        O      0.567700000000     0.504400000000     0.817700000000    -1.08186    
O        O      0.590100000000     0.095800000000     0.515700000000    -1.08186    
O        O      0.513100000000     0.994800000000     0.589900000000    -1.08186    
O        O      0.624800000000     0.111800000000     0.313000000000    -1.08186    
O        O      0.777800000000     0.034200000000     0.423600000000    -1.08186    
O        O      0.735000000000     0.213200000000     0.418500000000    -1.08186    
O        O      0.757500000000     0.334400000000     0.505300000000    -1.08186    
O        O      0.938900000000     0.317700000000     0.406900000000    -1.08186    
O        O      0.937100000000     0.220700000000     0.510500000000    -1.08186    
O        O      0.036000000000     0.089400000000     0.412300000000    -1.08186    
O        O      0.987200000000     0.932200000000     0.431000000000    -1.08186    
O        O      0.932300000000     0.004400000000     0.317700000000    -1.08186    
O        O      0.909900000000     0.595800000000     0.484300000000    -1.08186    
O        O      0.986900000000     0.494800000000     0.410100000000    -1.08186    
O        O      0.875200000000     0.611800000000     0.687000000000    -1.08186    
O        O      0.722200000000     0.534200000000     0.576400000000    -1.08186    
O        O      0.765000000000     0.713200000000     0.581500000000    -1.08186    
O        O      0.742500000000     0.834400000000     0.494700000000    -1.08186    
O        O      0.561100000000     0.817700000000     0.593100000000    -1.08186    
O        O      0.562900000000     0.720700000000     0.489500000000    -1.08186    
O        O      0.464000000000     0.589400000000     0.587700000000    -1.08186    
O        O      0.512800000000     0.432200000000     0.569000000000    -1.08186    
O        O      0.567700000000     0.504400000000     0.682300000000    -1.08186    
O        O      0.409900000000     0.904200000000     0.015700000000    -1.08186    
O        O      0.486900000000     0.005200000000     0.089900000000    -1.08186    
O        O      0.375200000000     0.888200000000     0.813000000000    -1.08186    
O        O      0.222200000000     0.965800000000     0.923600000000    -1.08186    
O        O      0.265000000000     0.786800000000     0.918500000000    -1.08186    
O        O      0.242500000000     0.665600000000     0.005300000000    -1.08186    
O        O      0.061100000000     0.682300000000     0.906900000000    -1.08186    
O        O      0.062900000000     0.779300000000     0.010500000000    -1.08186    
O        O      0.964000000000     0.910600000000     0.912300000000    -1.08186    
O        O      0.012800000000     0.067800000000     0.931000000000    -1.08186    
O        O      0.067700000000     0.995600000000     0.817700000000    -1.08186    
O        O      0.090100000000     0.404200000000     0.984300000000    -1.08186    
O        O      0.013100000000     0.505200000000     0.910100000000    -1.08186    
O        O      0.124800000000     0.388200000000     0.187000000000    -1.08186    
O        O      0.277800000000     0.465800000000     0.076400000000    -1.08186    
O        O      0.235000000000     0.286800000000     0.081500000000    -1.08186    
O        O      0.257500000000     0.165600000000     0.994700000000    -1.08186    
O        O      0.438900000000     0.182300000000     0.093100000000    -1.08186    
O        O      0.437100000000     0.279300000000     0.989500000000    -1.08186    
O        O      0.536000000000     0.410600000000     0.087700000000    -1.08186    
O        O      0.487200000000     0.567800000000     0.069000000000    -1.08186    
O        O      0.432300000000     0.495600000000     0.182300000000    -1.08186    
O        O      0.337000000000     0.026200000000     0.750000000000    -1.08186    
O        O      0.583000000000     0.960700000000     0.750000000000    -1.08186    
O        O      0.163000000000     0.526200000000     0.250000000000    -1.08186    
O        O      0.917000000000     0.460700000000     0.250000000000    -1.08186    
O        O      0.663000000000     0.973800000000     0.250000000000    -1.08186    
O        O      0.417000000000     0.039300000000     0.250000000000    -1.08186    
O        O      0.837000000000     0.473800000000     0.750000000000    -1.08186    
O        O      0.083000000000     0.539300000000     0.750000000000    -1.08186    


