data_PEMRIK_original

_audit_creation_method RASPA-1.0
_audit_creation_date 2022-1-30
_audit_author_name 'Felipe Lopes de Oliveira <felipe.lopes.oliveira@ibm.com>'

_cell_length_a    13.7633
_cell_length_b    16.6027
_cell_length_c    19.2303
_cell_angle_alpha 115.574
_cell_angle_beta  103.772
_cell_angle_gamma 90
_cell_volume      3823.23

_symmetry_cell_setting          triclinic
_symmetry_space_group_name_Hall 'P 1'
_symmetry_space_group_name_H-M  'P 1'
_symmetry_Int_Tables_number     1

_symmetry_equiv_pos_as_xyz 'x,y,z'

loop_
_atom_site_label
_atom_site_type_symbol
_atom_site_fract_x
_atom_site_fract_y
_atom_site_fract_z
_atom_site_charge
Zn       Zn     0.755880000000     0.080050000000     0.651120000000     0.470201   
Zn       Zn     0.816300000000     0.158550000000     0.827540000000     0.470201   
Zn       Zn     0.255880000000     0.571070000000     0.651120000000     0.470201   
Zn       Zn     0.316300000000     0.668990000000     0.827540000000     0.470201   
Zn       Zn     0.744120000000     0.428930000000     0.348880000000     0.470201   
Zn       Zn     0.683700000000     0.331010000000     0.172460000000     0.470201   
Zn       Zn     0.244120000000     0.919950000000     0.348880000000     0.470201   
Zn       Zn     0.183700000000     0.841450000000     0.172460000000     0.470201   
H        H      0.058000000000     0.003000000000     0.843400000000     0.056428   
H        H      0.155900000000     0.889600000000     0.842000000000     0.056428   
H        H      0.068800000000     0.767800000000     0.601800000000     0.056428   
H        H      0.974300000000     0.883900000000     0.603000000000     0.056428   
H        H      0.509400000000     0.474500000000     0.878000000000     0.056428   
H        H      0.416400000000     0.351100000000     0.637200000000     0.056428   
H        H      0.514000000000     0.237000000000     0.635400000000     0.056428   
H        H      0.608500000000     0.361700000000     0.876000000000     0.056428   
H        H      0.879400000000     0.056300000000     0.918400000000     0.056428   
H        H      0.977300000000     0.076600000000     0.041200000000     0.056428   
H        H      0.964100000000     0.341900000000     0.120600000000     0.056428   
H        H      0.868600000000     0.313200000000     0.995200000000     0.056428   
H        H      0.205600000000     0.184800000000     0.283800000000     0.056428   
H        H      0.029600000000     0.424200000000     0.374000000000     0.056428   
H        H      0.084500000000     0.529000000000     0.506400000000     0.056428   
H        H      0.338400000000     0.425800000000     0.533400000000     0.056428   
H        H      0.292000000000     0.319500000000     0.401000000000     0.056428   
H        H      0.558000000000     0.840400000000     0.843400000000     0.056428   
H        H      0.655900000000     0.952400000000     0.842000000000     0.056428   
H        H      0.568800000000     0.834000000000     0.601800000000     0.056428   
H        H      0.474300000000     0.719100000000     0.603000000000     0.056428   
H        H      0.009400000000     0.403500000000     0.878000000000     0.056428   
H        H      0.916400000000     0.286100000000     0.637200000000     0.056428   
H        H      0.014000000000     0.398400000000     0.635400000000     0.056428   
H        H      0.108500000000     0.514300000000     0.876000000000     0.056428   
H        H      0.379400000000     0.862100000000     0.918400000000     0.056428   
H        H      0.477300000000     0.964600000000     0.041200000000     0.056428   
H        H      0.464100000000     0.778700000000     0.120600000000     0.056428   
H        H      0.368600000000     0.682000000000     0.995200000000     0.056428   
H        H      0.705600000000     0.099000000000     0.283800000000     0.056428   
H        H      0.529600000000     0.949800000000     0.374000000000     0.056428   
H        H      0.584500000000     0.977400000000     0.506400000000     0.056428   
H        H      0.838400000000     0.107600000000     0.533400000000     0.056428   
H        H      0.792000000000     0.081500000000     0.401000000000     0.056428   
H        H      0.442000000000     0.159600000000     0.156600000000     0.056428   
H        H      0.344100000000     0.047600000000     0.158000000000     0.056428   
H        H      0.431200000000     0.166000000000     0.398200000000     0.056428   
H        H      0.525700000000     0.280900000000     0.397000000000     0.056428   
H        H      0.990600000000     0.596500000000     0.122000000000     0.056428   
H        H      0.083600000000     0.713900000000     0.362800000000     0.056428   
H        H      0.986000000000     0.601600000000     0.364600000000     0.056428   
H        H      0.891500000000     0.485700000000     0.124000000000     0.056428   
H        H      0.620600000000     0.137900000000     0.081600000000     0.056428   
H        H      0.522700000000     0.035400000000     0.958800000000     0.056428   
H        H      0.535900000000     0.221300000000     0.879400000000     0.056428   
H        H      0.631400000000     0.318000000000     0.004800000000     0.056428   
H        H      0.294400000000     0.901000000000     0.716200000000     0.056428   
H        H      0.470400000000     0.050200000000     0.626000000000     0.056428   
H        H      0.415500000000     0.022600000000     0.493600000000     0.056428   
H        H      0.161600000000     0.892400000000     0.466600000000     0.056428   
H        H      0.208000000000     0.918500000000     0.599000000000     0.056428   
H        H      0.942000000000     0.997000000000     0.156600000000     0.056428   
H        H      0.844100000000     0.110400000000     0.158000000000     0.056428   
H        H      0.931200000000     0.232200000000     0.398200000000     0.056428   
H        H      0.025700000000     0.116100000000     0.397000000000     0.056428   
H        H      0.490600000000     0.525500000000     0.122000000000     0.056428   
H        H      0.583600000000     0.648900000000     0.362800000000     0.056428   
H        H      0.486000000000     0.763000000000     0.364600000000     0.056428   
H        H      0.391500000000     0.638300000000     0.124000000000     0.056428   
H        H      0.120600000000     0.943700000000     0.081600000000     0.056428   
H        H      0.022700000000     0.923400000000     0.958800000000     0.056428   
H        H      0.035900000000     0.658100000000     0.879400000000     0.056428   
H        H      0.131400000000     0.686800000000     0.004800000000     0.056428   
H        H      0.794400000000     0.815200000000     0.716200000000     0.056428   
H        H      0.970400000000     0.575800000000     0.626000000000     0.056428   
H        H      0.915500000000     0.471000000000     0.493600000000     0.056428   
H        H      0.661600000000     0.574200000000     0.466600000000     0.056428   
H        H      0.708000000000     0.680500000000     0.599000000000     0.056428   
C        C      0.178600000000     0.739620000000     0.722280000000     0.0361793  
C        C      0.931300000000     0.021680000000     0.725000000000     0.0361793  
C        C      0.003100000000     0.953270000000     0.723200000000     0.0361793  
C        C      0.059500000000     0.955010000000     0.794320000000     0.0361793  
C        C      0.117400000000     0.887340000000     0.793600000000     0.0361793  
C        C      0.119350000000     0.815440000000     0.721560000000     0.0361793  
C        C      0.066200000000     0.815180000000     0.650860000000     0.0361793  
C        C      0.009200000000     0.884140000000     0.651580000000     0.0361793  
C        C      0.393800000000     0.500690000000     0.757840000000     0.0361793  
C        C      0.454460000000     0.425550000000     0.757700000000     0.0361793  
C        C      0.511300000000     0.427060000000     0.828920000000     0.0361793  
C        C      0.455600000000     0.353520000000     0.685560000000     0.0361793  
C        C      0.642330000000     0.218530000000     0.753180000000     0.0361793  
C        C      0.572300000000     0.288040000000     0.755300000000     0.0361793  
C        C      0.513900000000     0.285440000000     0.684460000000     0.0361793  
C        C      0.569800000000     0.359610000000     0.827700000000     0.0361793  
C        C      0.899000000000     0.115090000000     0.959560000000     0.0361793  
C        C      0.956800000000     0.126490000000     0.032920000000     0.0361793  
C        C      0.984000000000     0.212440000000     0.093980000000     0.0361793  
C        C      0.949300000000     0.282710000000     0.079760000000     0.0361793  
C        C      0.892600000000     0.264820000000     0.004580000000     0.0361793  
C        C      0.123400000000     0.291580000000     0.290860000000     0.0361793  
C        C      0.156600000000     0.208280000000     0.256960000000     0.0361793  
C        C      0.154500000000     0.359040000000     0.373660000000     0.0361793  
C        C      0.092800000000     0.422960000000     0.405620000000     0.0361793  
C        C      0.126000000000     0.484840000000     0.484860000000     0.0361793  
C        C      0.275000000000     0.424820000000     0.500840000000     0.0361793  
C        C      0.247700000000     0.360970000000     0.421740000000     0.0361793  
C        C      0.678600000000     0.982660000000     0.722280000000     0.0361793  
C        C      0.431300000000     0.703320000000     0.725000000000     0.0361793  
C        C      0.503100000000     0.769930000000     0.723200000000     0.0361793  
C        C      0.559500000000     0.839310000000     0.794320000000     0.0361793  
C        C      0.617400000000     0.906260000000     0.793600000000     0.0361793  
C        C      0.619350000000     0.906120000000     0.721560000000     0.0361793  
C        C      0.566200000000     0.835680000000     0.650860000000     0.0361793  
C        C      0.509200000000     0.767440000000     0.651580000000     0.0361793  
C        C      0.893800000000     0.257150000000     0.757840000000     0.0361793  
C        C      0.954460000000     0.332150000000     0.757700000000     0.0361793  
C        C      0.011300000000     0.401860000000     0.828920000000     0.0361793  
C        C      0.955600000000     0.332040000000     0.685560000000     0.0361793  
C        C      0.142330000000     0.534650000000     0.753180000000     0.0361793  
C        C      0.072300000000     0.467260000000     0.755300000000     0.0361793  
C        C      0.013900000000     0.399020000000     0.684460000000     0.0361793  
C        C      0.069800000000     0.468090000000     0.827700000000     0.0361793  
C        C      0.399000000000     0.844470000000     0.959560000000     0.0361793  
C        C      0.456800000000     0.906430000000     0.032920000000     0.0361793  
C        C      0.484000000000     0.881540000000     0.093980000000     0.0361793  
C        C      0.449300000000     0.797050000000     0.079760000000     0.0361793  
C        C      0.392600000000     0.739760000000     0.004580000000     0.0361793  
C        C      0.623400000000     0.999280000000     0.290860000000     0.0361793  
C        C      0.656600000000     0.048680000000     0.256960000000     0.0361793  
C        C      0.654500000000     0.014620000000     0.373660000000     0.0361793  
C        C      0.592800000000     0.982660000000     0.405620000000     0.0361793  
C        C      0.626000000000     0.000020000000     0.484860000000     0.0361793  
C        C      0.775000000000     0.076020000000     0.500840000000     0.0361793  
C        C      0.747700000000     0.060770000000     0.421740000000     0.0361793  
C        C      0.321400000000     0.017340000000     0.277720000000     0.0361793  
C        C      0.568700000000     0.296680000000     0.275000000000     0.0361793  
C        C      0.496900000000     0.230070000000     0.276800000000     0.0361793  
C        C      0.440500000000     0.160690000000     0.205680000000     0.0361793  
C        C      0.382600000000     0.093740000000     0.206400000000     0.0361793  
C        C      0.380650000000     0.093880000000     0.278440000000     0.0361793  
C        C      0.433800000000     0.164320000000     0.349140000000     0.0361793  
C        C      0.490800000000     0.232560000000     0.348420000000     0.0361793  
C        C      0.106200000000     0.742850000000     0.242160000000     0.0361793  
C        C      0.045540000000     0.667850000000     0.242300000000     0.0361793  
C        C      0.988700000000     0.598140000000     0.171080000000     0.0361793  
C        C      0.044400000000     0.667960000000     0.314440000000     0.0361793  
C        C      0.857670000000     0.465350000000     0.246820000000     0.0361793  
C        C      0.927700000000     0.532740000000     0.244700000000     0.0361793  
C        C      0.986100000000     0.600980000000     0.315540000000     0.0361793  
C        C      0.930200000000     0.531910000000     0.172300000000     0.0361793  
C        C      0.601000000000     0.155530000000     0.040440000000     0.0361793  
C        C      0.543200000000     0.093570000000     0.967080000000     0.0361793  
C        C      0.516000000000     0.118460000000     0.906020000000     0.0361793  
C        C      0.550700000000     0.202950000000     0.920240000000     0.0361793  
C        C      0.607400000000     0.260240000000     0.995420000000     0.0361793  
C        C      0.376600000000     0.000720000000     0.709140000000     0.0361793  
C        C      0.343400000000     0.951320000000     0.743040000000     0.0361793  
C        C      0.345500000000     0.985380000000     0.626340000000     0.0361793  
C        C      0.407200000000     0.017340000000     0.594380000000     0.0361793  
C        C      0.374000000000     0.999980000000     0.515140000000     0.0361793  
C        C      0.225000000000     0.923980000000     0.499160000000     0.0361793  
C        C      0.252300000000     0.939230000000     0.578260000000     0.0361793  
C        C      0.821400000000     0.260380000000     0.277720000000     0.0361793  
C        C      0.068700000000     0.978320000000     0.275000000000     0.0361793  
C        C      0.996900000000     0.046730000000     0.276800000000     0.0361793  
C        C      0.940500000000     0.044990000000     0.205680000000     0.0361793  
C        C      0.882600000000     0.112660000000     0.206400000000     0.0361793  
C        C      0.880650000000     0.184560000000     0.278440000000     0.0361793  
C        C      0.933800000000     0.184820000000     0.349140000000     0.0361793  
C        C      0.990800000000     0.115860000000     0.348420000000     0.0361793  
C        C      0.606200000000     0.499310000000     0.242160000000     0.0361793  
C        C      0.545540000000     0.574450000000     0.242300000000     0.0361793  
C        C      0.488700000000     0.572940000000     0.171080000000     0.0361793  
C        C      0.544400000000     0.646480000000     0.314440000000     0.0361793  
C        C      0.357670000000     0.781470000000     0.246820000000     0.0361793  
C        C      0.427700000000     0.711960000000     0.244700000000     0.0361793  
C        C      0.486100000000     0.714560000000     0.315540000000     0.0361793  
C        C      0.430200000000     0.640390000000     0.172300000000     0.0361793  
C        C      0.101000000000     0.884910000000     0.040440000000     0.0361793  
C        C      0.043200000000     0.873510000000     0.967080000000     0.0361793  
C        C      0.016000000000     0.787560000000     0.906020000000     0.0361793  
C        C      0.050700000000     0.717290000000     0.920240000000     0.0361793  
C        C      0.107400000000     0.735180000000     0.995420000000     0.0361793  
C        C      0.876600000000     0.708420000000     0.709140000000     0.0361793  
C        C      0.843400000000     0.791720000000     0.743040000000     0.0361793  
C        C      0.845500000000     0.640960000000     0.626340000000     0.0361793  
C        C      0.907200000000     0.577040000000     0.594380000000     0.0361793  
C        C      0.874000000000     0.515160000000     0.515140000000     0.0361793  
C        C      0.725000000000     0.575180000000     0.499160000000     0.0361793  
C        C      0.752300000000     0.639030000000     0.578260000000     0.0361793  
N        N      0.869720000000     0.183060000000     0.944400000000    -0.115912   
N        N      0.214260000000     0.484950000000     0.532380000000    -0.115912   
N        N      0.047600000000     0.227150000000     0.169060000000    -0.115912   
N        N      0.054690000000     0.303480000000     0.235580000000    -0.115912   
N        N      0.107000000000     0.166430000000     0.179100000000    -0.115912   
N        N      0.369720000000     0.761340000000     0.944400000000    -0.115912   
N        N      0.714260000000     0.047430000000     0.532380000000    -0.115912   
N        N      0.547600000000     0.941910000000     0.169060000000    -0.115912   
N        N      0.554690000000     0.932100000000     0.235580000000    -0.115912   
N        N      0.607000000000     0.012670000000     0.179100000000    -0.115912   
N        N      0.630280000000     0.238660000000     0.055600000000    -0.115912   
N        N      0.285740000000     0.952570000000     0.467620000000    -0.115912   
N        N      0.452400000000     0.058090000000     0.830940000000    -0.115912   
N        N      0.445310000000     0.067900000000     0.764420000000    -0.115912   
N        N      0.393000000000     0.987330000000     0.820900000000    -0.115912   
N        N      0.130280000000     0.816940000000     0.055600000000    -0.115912   
N        N      0.785740000000     0.515050000000     0.467620000000    -0.115912   
N        N      0.952400000000     0.772850000000     0.830940000000    -0.115912   
N        N      0.945310000000     0.696520000000     0.764420000000    -0.115912   
N        N      0.893000000000     0.833570000000     0.820900000000    -0.115912   
O        O      0.176030000000     0.675040000000     0.655760000000    -0.291642   
O        O      0.225810000000     0.746570000000     0.788800000000    -0.291642   
O        O      0.925870000000     0.078570000000     0.792240000000    -0.291642   
O        O      0.879670000000     0.015800000000     0.659580000000    -0.291642   
O        O      0.396500000000     0.564810000000     0.824320000000    -0.291642   
O        O      0.345220000000     0.493750000000     0.691460000000    -0.291642   
O        O      0.696080000000     0.226620000000     0.818760000000    -0.291642   
O        O      0.643990000000     0.158930000000     0.685380000000    -0.291642   
O        O      0.676030000000     0.980720000000     0.655760000000    -0.291642   
O        O      0.725810000000     0.042230000000     0.788800000000    -0.291642   
O        O      0.425870000000     0.713670000000     0.792240000000    -0.291642   
O        O      0.379670000000     0.643780000000     0.659580000000    -0.291642   
O        O      0.896500000000     0.259510000000     0.824320000000    -0.291642   
O        O      0.845220000000     0.197710000000     0.691460000000    -0.291642   
O        O      0.196080000000     0.592140000000     0.818760000000    -0.291642   
O        O      0.143990000000     0.526450000000     0.685380000000    -0.291642   
O        O      0.323970000000     0.019280000000     0.344240000000    -0.291642   
O        O      0.274190000000     0.957770000000     0.211200000000    -0.291642   
O        O      0.574130000000     0.286330000000     0.207760000000    -0.291642   
O        O      0.620330000000     0.356220000000     0.340420000000    -0.291642   
O        O      0.103500000000     0.740490000000     0.175680000000    -0.291642   
O        O      0.154780000000     0.802290000000     0.308540000000    -0.291642   
O        O      0.803920000000     0.407860000000     0.181240000000    -0.291642   
O        O      0.856010000000     0.473550000000     0.314620000000    -0.291642   
O        O      0.823970000000     0.324960000000     0.344240000000    -0.291642   
O        O      0.774190000000     0.253430000000     0.211200000000    -0.291642   
O        O      0.074130000000     0.921430000000     0.207760000000    -0.291642   
O        O      0.120330000000     0.984200000000     0.340420000000    -0.291642   
O        O      0.603500000000     0.435190000000     0.175680000000    -0.291642   
O        O      0.654780000000     0.506250000000     0.308540000000    -0.291642   
O        O      0.303920000000     0.773380000000     0.181240000000    -0.291642   
O        O      0.356010000000     0.841070000000     0.314620000000    -0.291642   


