data_PEPBAO_original

_audit_creation_method RASPA-1.0
_audit_creation_date 2022-1-29
_audit_author_name 'Felipe Lopes de Oliveira <felipe.lopes.oliveira@ibm.com>'

_cell_length_a    9.5533
_cell_length_b    9.9947
_cell_length_c    23.8866
_cell_angle_alpha 90
_cell_angle_beta  90
_cell_angle_gamma 90
_cell_volume      2280.75

_symmetry_cell_setting          triclinic
_symmetry_space_group_name_Hall 'P 1'
_symmetry_space_group_name_H-M  'P 1'
_symmetry_Int_Tables_number     1

_symmetry_equiv_pos_as_xyz 'x,y,z'

loop_
_atom_site_label
_atom_site_type_symbol
_atom_site_fract_x
_atom_site_fract_y
_atom_site_fract_z
_atom_site_charge
Zn       Zn     0.825280000000     0.625510000000     0.488060000000     0.450178   
Zn       Zn     0.325280000000     0.874490000000     0.511940000000     0.450178   
Zn       Zn     0.174720000000     0.374490000000     0.988060000000     0.450178   
Zn       Zn     0.674720000000     0.125510000000     0.011940000000     0.450178   
Zn       Zn     0.174720000000     0.374490000000     0.511940000000     0.450178   
Zn       Zn     0.674720000000     0.125510000000     0.488060000000     0.450178   
Zn       Zn     0.825280000000     0.625510000000     0.011940000000     0.450178   
Zn       Zn     0.325280000000     0.874490000000     0.988060000000     0.450178   
P        P      0.112690000000     0.654180000000     0.561290000000     0.416714   
P        P      0.612690000000     0.845820000000     0.438710000000     0.416714   
P        P      0.887310000000     0.345820000000     0.061290000000     0.416714   
P        P      0.387310000000     0.154180000000     0.938710000000     0.416714   
P        P      0.887310000000     0.345820000000     0.438710000000     0.416714   
P        P      0.387310000000     0.154180000000     0.561290000000     0.416714   
P        P      0.112690000000     0.654180000000     0.938710000000     0.416714   
P        P      0.612690000000     0.845820000000     0.061290000000     0.416714   
H        H      0.068600000000     0.702800000000     0.608600000000     0.0543365  
H        H      0.531800000000     0.624600000000     0.539600000000     0.0543365  
H        H      0.419700000000     0.531700000000     0.616200000000     0.0543365  
H        H      0.776600000000     0.334000000000     0.653100000000     0.0543365  
H        H      0.878700000000     0.429400000000     0.575500000000     0.0543365  
H        H      0.419500000000     0.386400000000     0.696600000000     0.0543365  
H        H      0.535600000000     0.271000000000     0.698200000000     0.0543365  
H        H      0.568600000000     0.797200000000     0.391400000000     0.0543365  
H        H      0.031800000000     0.875400000000     0.460400000000     0.0543365  
H        H      0.919700000000     0.968300000000     0.383800000000     0.0543365  
H        H      0.276600000000     0.166000000000     0.346900000000     0.0543365  
H        H      0.378700000000     0.070600000000     0.424500000000     0.0543365  
H        H      0.919500000000     0.113600000000     0.303400000000     0.0543365  
H        H      0.035600000000     0.229000000000     0.301800000000     0.0543365  
H        H      0.931400000000     0.297200000000     0.108600000000     0.0543365  
H        H      0.468200000000     0.375400000000     0.039600000000     0.0543365  
H        H      0.580300000000     0.468300000000     0.116200000000     0.0543365  
H        H      0.223400000000     0.666000000000     0.153100000000     0.0543365  
H        H      0.121300000000     0.570600000000     0.075500000000     0.0543365  
H        H      0.580500000000     0.613600000000     0.196600000000     0.0543365  
H        H      0.464400000000     0.729000000000     0.198200000000     0.0543365  
H        H      0.431400000000     0.202800000000     0.891400000000     0.0543365  
H        H      0.968200000000     0.124600000000     0.960400000000     0.0543365  
H        H      0.080300000000     0.031700000000     0.883800000000     0.0543365  
H        H      0.723400000000     0.834000000000     0.846900000000     0.0543365  
H        H      0.621300000000     0.929400000000     0.924500000000     0.0543365  
H        H      0.080500000000     0.886400000000     0.803400000000     0.0543365  
H        H      0.964400000000     0.771000000000     0.801800000000     0.0543365  
H        H      0.931400000000     0.297200000000     0.391400000000     0.0543365  
H        H      0.468200000000     0.375400000000     0.460400000000     0.0543365  
H        H      0.580300000000     0.468300000000     0.383800000000     0.0543365  
H        H      0.223400000000     0.666000000000     0.346900000000     0.0543365  
H        H      0.121300000000     0.570600000000     0.424500000000     0.0543365  
H        H      0.580500000000     0.613600000000     0.303400000000     0.0543365  
H        H      0.464400000000     0.729000000000     0.301800000000     0.0543365  
H        H      0.431400000000     0.202800000000     0.608600000000     0.0543365  
H        H      0.968200000000     0.124600000000     0.539600000000     0.0543365  
H        H      0.080300000000     0.031700000000     0.616200000000     0.0543365  
H        H      0.723400000000     0.834000000000     0.653100000000     0.0543365  
H        H      0.621300000000     0.929400000000     0.575500000000     0.0543365  
H        H      0.080500000000     0.886400000000     0.696600000000     0.0543365  
H        H      0.964400000000     0.771000000000     0.698200000000     0.0543365  
H        H      0.068600000000     0.702800000000     0.891400000000     0.0543365  
H        H      0.531800000000     0.624600000000     0.960400000000     0.0543365  
H        H      0.419700000000     0.531700000000     0.883800000000     0.0543365  
H        H      0.776600000000     0.334000000000     0.846900000000     0.0543365  
H        H      0.878700000000     0.429400000000     0.924500000000     0.0543365  
H        H      0.419500000000     0.386400000000     0.803400000000     0.0543365  
H        H      0.535600000000     0.271000000000     0.801800000000     0.0543365  
H        H      0.568600000000     0.797200000000     0.108600000000     0.0543365  
H        H      0.031800000000     0.875400000000     0.039600000000     0.0543365  
H        H      0.919700000000     0.968300000000     0.116200000000     0.0543365  
H        H      0.276600000000     0.166000000000     0.153100000000     0.0543365  
H        H      0.378700000000     0.070600000000     0.075500000000     0.0543365  
H        H      0.919500000000     0.113600000000     0.196600000000     0.0543365  
H        H      0.035600000000     0.229000000000     0.198200000000     0.0543365  
H        H      0.687200000000     0.417200000000     0.750000000000     0.0543365  
H        H      0.566800000000     0.528800000000     0.750000000000     0.0543365  
H        H      0.187200000000     0.082800000000     0.250000000000     0.0543365  
H        H      0.066800000000     0.971200000000     0.250000000000     0.0543365  
H        H      0.312800000000     0.582800000000     0.250000000000     0.0543365  
H        H      0.433200000000     0.471200000000     0.250000000000     0.0543365  
H        H      0.812800000000     0.917200000000     0.750000000000     0.0543365  
H        H      0.933200000000     0.028800000000     0.750000000000     0.0543365  
C        C      0.582400000000     0.565700000000     0.563400000000    -0.0373196  
C        C      0.515000000000     0.510600000000     0.609130000000    -0.0373196  
C        C      0.586300000000     0.424600000000     0.644840000000    -0.0373196  
C        C      0.724200000000     0.394600000000     0.630670000000    -0.0373196  
C        C      0.784800000000     0.452100000000     0.584440000000    -0.0373196  
C        C      0.521500000000     0.369100000000     0.697230000000    -0.0373196  
C        C      0.082400000000     0.934300000000     0.436600000000    -0.0373196  
C        C      0.015000000000     0.989400000000     0.390870000000    -0.0373196  
C        C      0.086300000000     0.075400000000     0.355160000000    -0.0373196  
C        C      0.224200000000     0.105400000000     0.369330000000    -0.0373196  
C        C      0.284800000000     0.047900000000     0.415560000000    -0.0373196  
C        C      0.021500000000     0.130900000000     0.302770000000    -0.0373196  
C        C      0.417600000000     0.434300000000     0.063400000000    -0.0373196  
C        C      0.485000000000     0.489400000000     0.109130000000    -0.0373196  
C        C      0.413700000000     0.575400000000     0.144840000000    -0.0373196  
C        C      0.275800000000     0.605400000000     0.130670000000    -0.0373196  
C        C      0.215200000000     0.547900000000     0.084440000000    -0.0373196  
C        C      0.478500000000     0.630900000000     0.197230000000    -0.0373196  
C        C      0.917600000000     0.065700000000     0.936600000000    -0.0373196  
C        C      0.985000000000     0.010600000000     0.890870000000    -0.0373196  
C        C      0.913700000000     0.924600000000     0.855160000000    -0.0373196  
C        C      0.775800000000     0.894600000000     0.869330000000    -0.0373196  
C        C      0.715200000000     0.952100000000     0.915560000000    -0.0373196  
C        C      0.978500000000     0.869100000000     0.802770000000    -0.0373196  
C        C      0.417600000000     0.434300000000     0.436600000000    -0.0373196  
C        C      0.485000000000     0.489400000000     0.390870000000    -0.0373196  
C        C      0.413700000000     0.575400000000     0.355160000000    -0.0373196  
C        C      0.275800000000     0.605400000000     0.369330000000    -0.0373196  
C        C      0.215200000000     0.547900000000     0.415560000000    -0.0373196  
C        C      0.478500000000     0.630900000000     0.302770000000    -0.0373196  
C        C      0.917600000000     0.065700000000     0.563400000000    -0.0373196  
C        C      0.985000000000     0.010600000000     0.609130000000    -0.0373196  
C        C      0.913700000000     0.924600000000     0.644840000000    -0.0373196  
C        C      0.775800000000     0.894600000000     0.630670000000    -0.0373196  
C        C      0.715200000000     0.952100000000     0.584440000000    -0.0373196  
C        C      0.978500000000     0.869100000000     0.697230000000    -0.0373196  
C        C      0.582400000000     0.565700000000     0.936600000000    -0.0373196  
C        C      0.515000000000     0.510600000000     0.890870000000    -0.0373196  
C        C      0.586300000000     0.424600000000     0.855160000000    -0.0373196  
C        C      0.724200000000     0.394600000000     0.869330000000    -0.0373196  
C        C      0.784800000000     0.452100000000     0.915560000000    -0.0373196  
C        C      0.521500000000     0.369100000000     0.802770000000    -0.0373196  
C        C      0.082400000000     0.934300000000     0.063400000000    -0.0373196  
C        C      0.015000000000     0.989400000000     0.109130000000    -0.0373196  
C        C      0.086300000000     0.075400000000     0.144840000000    -0.0373196  
C        C      0.224200000000     0.105400000000     0.130670000000    -0.0373196  
C        C      0.284800000000     0.047900000000     0.084440000000    -0.0373196  
C        C      0.021500000000     0.130900000000     0.197230000000    -0.0373196  
C        C      0.584600000000     0.431200000000     0.750000000000    -0.0373196  
C        C      0.084600000000     0.068800000000     0.250000000000    -0.0373196  
C        C      0.415400000000     0.568800000000     0.250000000000    -0.0373196  
C        C      0.915400000000     0.931200000000     0.750000000000    -0.0373196  
N        N      0.717100000000     0.538800000000     0.551380000000    -0.183167   
N        N      0.217100000000     0.961200000000     0.448620000000    -0.183167   
N        N      0.282900000000     0.461200000000     0.051380000000    -0.183167   
N        N      0.782900000000     0.038800000000     0.948620000000    -0.183167   
N        N      0.282900000000     0.461200000000     0.448620000000    -0.183167   
N        N      0.782900000000     0.038800000000     0.551380000000    -0.183167   
N        N      0.717100000000     0.538800000000     0.948620000000    -0.183167   
N        N      0.217100000000     0.961200000000     0.051380000000    -0.183167   
O        O      0.002310000000     0.687510000000     0.518390000000    -0.291947   
O        O      0.131700000000     0.504500000000     0.570400000000    -0.291947   
O        O      0.249800000000     0.722190000000     0.549100000000    -0.291947   
O        O      0.502310000000     0.812490000000     0.481610000000    -0.291947   
O        O      0.631700000000     0.995500000000     0.429600000000    -0.291947   
O        O      0.749800000000     0.777810000000     0.450900000000    -0.291947   
O        O      0.997690000000     0.312490000000     0.018390000000    -0.291947   
O        O      0.868300000000     0.495500000000     0.070400000000    -0.291947   
O        O      0.750200000000     0.277810000000     0.049100000000    -0.291947   
O        O      0.497690000000     0.187510000000     0.981610000000    -0.291947   
O        O      0.368300000000     0.004500000000     0.929600000000    -0.291947   
O        O      0.250200000000     0.222190000000     0.950900000000    -0.291947   
O        O      0.997690000000     0.312490000000     0.481610000000    -0.291947   
O        O      0.868300000000     0.495500000000     0.429600000000    -0.291947   
O        O      0.750200000000     0.277810000000     0.450900000000    -0.291947   
O        O      0.497690000000     0.187510000000     0.518390000000    -0.291947   
O        O      0.368300000000     0.004500000000     0.570400000000    -0.291947   
O        O      0.250200000000     0.222190000000     0.549100000000    -0.291947   
O        O      0.002310000000     0.687510000000     0.981610000000    -0.291947   
O        O      0.131700000000     0.504500000000     0.929600000000    -0.291947   
O        O      0.249800000000     0.722190000000     0.950900000000    -0.291947   
O        O      0.502310000000     0.812490000000     0.018390000000    -0.291947   
O        O      0.631700000000     0.995500000000     0.070400000000    -0.291947   
O        O      0.749800000000     0.777810000000     0.049100000000    -0.291947   


