data_PEQHUQ_original

_audit_creation_method RASPA-1.0
_audit_creation_date 2022-1-30
_audit_author_name 'Felipe Lopes de Oliveira <felipe.lopes.oliveira@ibm.com>'

_cell_length_a    12.6672
_cell_length_b    12.6672
_cell_length_c    25.4399
_cell_angle_alpha 90
_cell_angle_beta  90
_cell_angle_gamma 90
_cell_volume      4082.03

_symmetry_cell_setting          triclinic
_symmetry_space_group_name_Hall 'P 1'
_symmetry_space_group_name_H-M  'P 1'
_symmetry_Int_Tables_number     1

_symmetry_equiv_pos_as_xyz 'x,y,z'

loop_
_atom_site_label
_atom_site_type_symbol
_atom_site_fract_x
_atom_site_fract_y
_atom_site_fract_z
_atom_site_charge
Zn       Zn     0.039480000000     0.933280000000     0.437410000000     0.387664   
Zn       Zn     0.460520000000     0.566720000000     0.437410000000     0.387664   
Zn       Zn     0.566720000000     0.039480000000     0.437410000000     0.387664   
Zn       Zn     0.933280000000     0.460520000000     0.437410000000     0.387664   
Zn       Zn     0.460520000000     0.933280000000     0.062590000000     0.387664   
Zn       Zn     0.039480000000     0.566720000000     0.062590000000     0.387664   
Zn       Zn     0.933280000000     0.039480000000     0.062590000000     0.387664   
Zn       Zn     0.566720000000     0.460520000000     0.062590000000     0.387664   
Zn       Zn     0.960520000000     0.066720000000     0.562590000000     0.387664   
Zn       Zn     0.539480000000     0.433280000000     0.562590000000     0.387664   
Zn       Zn     0.433280000000     0.960520000000     0.562590000000     0.387664   
Zn       Zn     0.066720000000     0.539480000000     0.562590000000     0.387664   
Zn       Zn     0.539480000000     0.066720000000     0.937410000000     0.387664   
Zn       Zn     0.960520000000     0.433280000000     0.937410000000     0.387664   
Zn       Zn     0.066720000000     0.960520000000     0.937410000000     0.387664   
Zn       Zn     0.433280000000     0.539480000000     0.937410000000     0.387664   
H        H      0.860300000000     0.951700000000     0.353900000000     0.101322   
H        H      0.744100000000     0.969500000000     0.354500000000     0.101322   
H        H      0.070100000000     0.925000000000     0.237200000000     0.101322   
H        H      0.316600000000     0.928900000000     0.334600000000     0.101322   
H        H      0.728400000000     0.059300000000     0.528200000000     0.101322   
H        H      0.639700000000     0.548300000000     0.353900000000     0.101322   
H        H      0.755900000000     0.530500000000     0.354500000000     0.101322   
H        H      0.429900000000     0.575000000000     0.237200000000     0.101322   
H        H      0.183400000000     0.571100000000     0.334600000000     0.101322   
H        H      0.771600000000     0.440700000000     0.528200000000     0.101322   
H        H      0.548300000000     0.860300000000     0.353900000000     0.101322   
H        H      0.530500000000     0.744100000000     0.354500000000     0.101322   
H        H      0.575000000000     0.070100000000     0.237200000000     0.101322   
H        H      0.571100000000     0.316600000000     0.334600000000     0.101322   
H        H      0.440700000000     0.728400000000     0.528200000000     0.101322   
H        H      0.951700000000     0.639700000000     0.353900000000     0.101322   
H        H      0.969500000000     0.755900000000     0.354500000000     0.101322   
H        H      0.925000000000     0.429900000000     0.237200000000     0.101322   
H        H      0.928900000000     0.183400000000     0.334600000000     0.101322   
H        H      0.059300000000     0.771600000000     0.528200000000     0.101322   
H        H      0.639700000000     0.951700000000     0.146100000000     0.101322   
H        H      0.755900000000     0.969500000000     0.145500000000     0.101322   
H        H      0.429900000000     0.925000000000     0.262800000000     0.101322   
H        H      0.183400000000     0.928900000000     0.165400000000     0.101322   
H        H      0.771600000000     0.059300000000     0.971800000000     0.101322   
H        H      0.860300000000     0.548300000000     0.146100000000     0.101322   
H        H      0.744100000000     0.530500000000     0.145500000000     0.101322   
H        H      0.070100000000     0.575000000000     0.262800000000     0.101322   
H        H      0.316600000000     0.571100000000     0.165400000000     0.101322   
H        H      0.728400000000     0.440700000000     0.971800000000     0.101322   
H        H      0.951700000000     0.860300000000     0.146100000000     0.101322   
H        H      0.969500000000     0.744100000000     0.145500000000     0.101322   
H        H      0.925000000000     0.070100000000     0.262800000000     0.101322   
H        H      0.928900000000     0.316600000000     0.165400000000     0.101322   
H        H      0.059300000000     0.728400000000     0.971800000000     0.101322   
H        H      0.548300000000     0.639700000000     0.146100000000     0.101322   
H        H      0.530500000000     0.755900000000     0.145500000000     0.101322   
H        H      0.575000000000     0.429900000000     0.262800000000     0.101322   
H        H      0.571100000000     0.183400000000     0.165400000000     0.101322   
H        H      0.440700000000     0.771600000000     0.971800000000     0.101322   
H        H      0.139700000000     0.048300000000     0.646100000000     0.101322   
H        H      0.255900000000     0.030500000000     0.645500000000     0.101322   
H        H      0.929900000000     0.075000000000     0.762800000000     0.101322   
H        H      0.683400000000     0.071100000000     0.665400000000     0.101322   
H        H      0.271600000000     0.940700000000     0.471800000000     0.101322   
H        H      0.360300000000     0.451700000000     0.646100000000     0.101322   
H        H      0.244100000000     0.469500000000     0.645500000000     0.101322   
H        H      0.570100000000     0.425000000000     0.762800000000     0.101322   
H        H      0.816600000000     0.428900000000     0.665400000000     0.101322   
H        H      0.228400000000     0.559300000000     0.471800000000     0.101322   
H        H      0.451700000000     0.139700000000     0.646100000000     0.101322   
H        H      0.469500000000     0.255900000000     0.645500000000     0.101322   
H        H      0.425000000000     0.929900000000     0.762800000000     0.101322   
H        H      0.428900000000     0.683400000000     0.665400000000     0.101322   
H        H      0.559300000000     0.271600000000     0.471800000000     0.101322   
H        H      0.048300000000     0.360300000000     0.646100000000     0.101322   
H        H      0.030500000000     0.244100000000     0.645500000000     0.101322   
H        H      0.075000000000     0.570100000000     0.762800000000     0.101322   
H        H      0.071100000000     0.816600000000     0.665400000000     0.101322   
H        H      0.940700000000     0.228400000000     0.471800000000     0.101322   
H        H      0.360300000000     0.048300000000     0.853900000000     0.101322   
H        H      0.244100000000     0.030500000000     0.854500000000     0.101322   
H        H      0.570100000000     0.075000000000     0.737200000000     0.101322   
H        H      0.816600000000     0.071100000000     0.834600000000     0.101322   
H        H      0.228400000000     0.940700000000     0.028200000000     0.101322   
H        H      0.139700000000     0.451700000000     0.853900000000     0.101322   
H        H      0.255900000000     0.469500000000     0.854500000000     0.101322   
H        H      0.929900000000     0.425000000000     0.737200000000     0.101322   
H        H      0.683400000000     0.428900000000     0.834600000000     0.101322   
H        H      0.271600000000     0.559300000000     0.028200000000     0.101322   
H        H      0.048300000000     0.139700000000     0.853900000000     0.101322   
H        H      0.030500000000     0.255900000000     0.854500000000     0.101322   
H        H      0.075000000000     0.929900000000     0.737200000000     0.101322   
H        H      0.071100000000     0.683400000000     0.834600000000     0.101322   
H        H      0.940700000000     0.271600000000     0.028200000000     0.101322   
H        H      0.451700000000     0.360300000000     0.853900000000     0.101322   
H        H      0.469500000000     0.244100000000     0.854500000000     0.101322   
H        H      0.425000000000     0.570100000000     0.737200000000     0.101322   
H        H      0.428900000000     0.816600000000     0.834600000000     0.101322   
H        H      0.559300000000     0.228400000000     0.028200000000     0.101322   
C        C      0.107100000000     0.928800000000     0.338890000000     0.0933372  
C        C      0.182200000000     0.926900000000     0.292870000000     0.0933372  
C        C      0.142700000000     0.926300000000     0.242500000000     0.0933372  
C        C      0.289400000000     0.927600000000     0.300640000000     0.0933372  
C        C      0.808800000000     0.995800000000     0.421040000000     0.0933372  
C        C      0.767900000000     0.039900000000     0.498890000000     0.0933372  
C        C      0.392900000000     0.571200000000     0.338890000000     0.0933372  
C        C      0.317800000000     0.573100000000     0.292870000000     0.0933372  
C        C      0.357300000000     0.573700000000     0.242500000000     0.0933372  
C        C      0.210600000000     0.572400000000     0.300640000000     0.0933372  
C        C      0.691200000000     0.504200000000     0.421040000000     0.0933372  
C        C      0.732100000000     0.460100000000     0.498890000000     0.0933372  
C        C      0.571200000000     0.107100000000     0.338890000000     0.0933372  
C        C      0.573100000000     0.182200000000     0.292870000000     0.0933372  
C        C      0.573700000000     0.142700000000     0.242500000000     0.0933372  
C        C      0.572400000000     0.289400000000     0.300640000000     0.0933372  
C        C      0.504200000000     0.808800000000     0.421040000000     0.0933372  
C        C      0.460100000000     0.767900000000     0.498890000000     0.0933372  
C        C      0.928800000000     0.392900000000     0.338890000000     0.0933372  
C        C      0.926900000000     0.317800000000     0.292870000000     0.0933372  
C        C      0.926300000000     0.357300000000     0.242500000000     0.0933372  
C        C      0.927600000000     0.210600000000     0.300640000000     0.0933372  
C        C      0.995800000000     0.691200000000     0.421040000000     0.0933372  
C        C      0.039900000000     0.732100000000     0.498890000000     0.0933372  
C        C      0.392900000000     0.928800000000     0.161110000000     0.0933372  
C        C      0.317800000000     0.926900000000     0.207130000000     0.0933372  
C        C      0.357300000000     0.926300000000     0.257500000000     0.0933372  
C        C      0.210600000000     0.927600000000     0.199360000000     0.0933372  
C        C      0.691200000000     0.995800000000     0.078960000000     0.0933372  
C        C      0.732100000000     0.039900000000     0.001110000000     0.0933372  
C        C      0.107100000000     0.571200000000     0.161110000000     0.0933372  
C        C      0.182200000000     0.573100000000     0.207130000000     0.0933372  
C        C      0.142700000000     0.573700000000     0.257500000000     0.0933372  
C        C      0.289400000000     0.572400000000     0.199360000000     0.0933372  
C        C      0.808800000000     0.504200000000     0.078960000000     0.0933372  
C        C      0.767900000000     0.460100000000     0.001110000000     0.0933372  
C        C      0.928800000000     0.107100000000     0.161110000000     0.0933372  
C        C      0.926900000000     0.182200000000     0.207130000000     0.0933372  
C        C      0.926300000000     0.142700000000     0.257500000000     0.0933372  
C        C      0.927600000000     0.289400000000     0.199360000000     0.0933372  
C        C      0.995800000000     0.808800000000     0.078960000000     0.0933372  
C        C      0.039900000000     0.767900000000     0.001110000000     0.0933372  
C        C      0.571200000000     0.392900000000     0.161110000000     0.0933372  
C        C      0.573100000000     0.317800000000     0.207130000000     0.0933372  
C        C      0.573700000000     0.357300000000     0.257500000000     0.0933372  
C        C      0.572400000000     0.210600000000     0.199360000000     0.0933372  
C        C      0.504200000000     0.691200000000     0.078960000000     0.0933372  
C        C      0.460100000000     0.732100000000     0.001110000000     0.0933372  
C        C      0.892900000000     0.071200000000     0.661110000000     0.0933372  
C        C      0.817800000000     0.073100000000     0.707130000000     0.0933372  
C        C      0.857300000000     0.073700000000     0.757500000000     0.0933372  
C        C      0.710600000000     0.072400000000     0.699360000000     0.0933372  
C        C      0.191200000000     0.004200000000     0.578960000000     0.0933372  
C        C      0.232100000000     0.960100000000     0.501110000000     0.0933372  
C        C      0.607100000000     0.428800000000     0.661110000000     0.0933372  
C        C      0.682200000000     0.426900000000     0.707130000000     0.0933372  
C        C      0.642700000000     0.426300000000     0.757500000000     0.0933372  
C        C      0.789400000000     0.427600000000     0.699360000000     0.0933372  
C        C      0.308800000000     0.495800000000     0.578960000000     0.0933372  
C        C      0.267900000000     0.539900000000     0.501110000000     0.0933372  
C        C      0.428800000000     0.892900000000     0.661110000000     0.0933372  
C        C      0.426900000000     0.817800000000     0.707130000000     0.0933372  
C        C      0.426300000000     0.857300000000     0.757500000000     0.0933372  
C        C      0.427600000000     0.710600000000     0.699360000000     0.0933372  
C        C      0.495800000000     0.191200000000     0.578960000000     0.0933372  
C        C      0.539900000000     0.232100000000     0.501110000000     0.0933372  
C        C      0.071200000000     0.607100000000     0.661110000000     0.0933372  
C        C      0.073100000000     0.682200000000     0.707130000000     0.0933372  
C        C      0.073700000000     0.642700000000     0.757500000000     0.0933372  
C        C      0.072400000000     0.789400000000     0.699360000000     0.0933372  
C        C      0.004200000000     0.308800000000     0.578960000000     0.0933372  
C        C      0.960100000000     0.267900000000     0.501110000000     0.0933372  
C        C      0.607100000000     0.071200000000     0.838890000000     0.0933372  
C        C      0.682200000000     0.073100000000     0.792870000000     0.0933372  
C        C      0.642700000000     0.073700000000     0.742500000000     0.0933372  
C        C      0.789400000000     0.072400000000     0.800640000000     0.0933372  
C        C      0.308800000000     0.004200000000     0.921040000000     0.0933372  
C        C      0.267900000000     0.960100000000     0.998890000000     0.0933372  
C        C      0.892900000000     0.428800000000     0.838890000000     0.0933372  
C        C      0.817800000000     0.426900000000     0.792870000000     0.0933372  
C        C      0.857300000000     0.426300000000     0.742500000000     0.0933372  
C        C      0.710600000000     0.427600000000     0.800640000000     0.0933372  
C        C      0.191200000000     0.495800000000     0.921040000000     0.0933372  
C        C      0.232100000000     0.539900000000     0.998890000000     0.0933372  
C        C      0.071200000000     0.892900000000     0.838890000000     0.0933372  
C        C      0.073100000000     0.817800000000     0.792870000000     0.0933372  
C        C      0.073700000000     0.857300000000     0.742500000000     0.0933372  
C        C      0.072400000000     0.710600000000     0.800640000000     0.0933372  
C        C      0.004200000000     0.191200000000     0.921040000000     0.0933372  
C        C      0.960100000000     0.232100000000     0.998890000000     0.0933372  
C        C      0.428800000000     0.607100000000     0.838890000000     0.0933372  
C        C      0.426900000000     0.682200000000     0.792870000000     0.0933372  
C        C      0.426300000000     0.642700000000     0.742500000000     0.0933372  
C        C      0.427600000000     0.789400000000     0.800640000000     0.0933372  
C        C      0.495800000000     0.308800000000     0.921040000000     0.0933372  
C        C      0.539900000000     0.267900000000     0.998890000000     0.0933372  
N        N      0.724800000000     0.022500000000     0.450870000000    -0.214233   
N        N      0.869800000000     0.027000000000     0.500080000000    -0.214233   
N        N      0.898500000000     0.997500000000     0.449190000000    -0.214233   
N        N      0.803800000000     0.969200000000     0.370540000000    -0.214233   
N        N      0.775200000000     0.477500000000     0.450870000000    -0.214233   
N        N      0.630200000000     0.473000000000     0.500080000000    -0.214233   
N        N      0.601500000000     0.502500000000     0.449190000000    -0.214233   
N        N      0.696200000000     0.530800000000     0.370540000000    -0.214233   
N        N      0.477500000000     0.724800000000     0.450870000000    -0.214233   
N        N      0.473000000000     0.869800000000     0.500080000000    -0.214233   
N        N      0.502500000000     0.898500000000     0.449190000000    -0.214233   
N        N      0.530800000000     0.803800000000     0.370540000000    -0.214233   
N        N      0.022500000000     0.775200000000     0.450870000000    -0.214233   
N        N      0.027000000000     0.630200000000     0.500080000000    -0.214233   
N        N      0.997500000000     0.601500000000     0.449190000000    -0.214233   
N        N      0.969200000000     0.696200000000     0.370540000000    -0.214233   
N        N      0.775200000000     0.022500000000     0.049130000000    -0.214233   
N        N      0.630200000000     0.027000000000     0.999920000000    -0.214233   
N        N      0.601500000000     0.997500000000     0.050810000000    -0.214233   
N        N      0.696200000000     0.969200000000     0.129460000000    -0.214233   
N        N      0.724800000000     0.477500000000     0.049130000000    -0.214233   
N        N      0.869800000000     0.473000000000     0.999920000000    -0.214233   
N        N      0.898500000000     0.502500000000     0.050810000000    -0.214233   
N        N      0.803800000000     0.530800000000     0.129460000000    -0.214233   
N        N      0.022500000000     0.724800000000     0.049130000000    -0.214233   
N        N      0.027000000000     0.869800000000     0.999920000000    -0.214233   
N        N      0.997500000000     0.898500000000     0.050810000000    -0.214233   
N        N      0.969200000000     0.803800000000     0.129460000000    -0.214233   
N        N      0.477500000000     0.775200000000     0.049130000000    -0.214233   
N        N      0.473000000000     0.630200000000     0.999920000000    -0.214233   
N        N      0.502500000000     0.601500000000     0.050810000000    -0.214233   
N        N      0.530800000000     0.696200000000     0.129460000000    -0.214233   
N        N      0.275200000000     0.977500000000     0.549130000000    -0.214233   
N        N      0.130200000000     0.973000000000     0.499920000000    -0.214233   
N        N      0.101500000000     0.002500000000     0.550810000000    -0.214233   
N        N      0.196200000000     0.030800000000     0.629460000000    -0.214233   
N        N      0.224800000000     0.522500000000     0.549130000000    -0.214233   
N        N      0.369800000000     0.527000000000     0.499920000000    -0.214233   
N        N      0.398500000000     0.497500000000     0.550810000000    -0.214233   
N        N      0.303800000000     0.469200000000     0.629460000000    -0.214233   
N        N      0.522500000000     0.275200000000     0.549130000000    -0.214233   
N        N      0.527000000000     0.130200000000     0.499920000000    -0.214233   
N        N      0.497500000000     0.101500000000     0.550810000000    -0.214233   
N        N      0.469200000000     0.196200000000     0.629460000000    -0.214233   
N        N      0.977500000000     0.224800000000     0.549130000000    -0.214233   
N        N      0.973000000000     0.369800000000     0.499920000000    -0.214233   
N        N      0.002500000000     0.398500000000     0.550810000000    -0.214233   
N        N      0.030800000000     0.303800000000     0.629460000000    -0.214233   
N        N      0.224800000000     0.977500000000     0.950870000000    -0.214233   
N        N      0.369800000000     0.973000000000     0.000080000000    -0.214233   
N        N      0.398500000000     0.002500000000     0.949190000000    -0.214233   
N        N      0.303800000000     0.030800000000     0.870540000000    -0.214233   
N        N      0.275200000000     0.522500000000     0.950870000000    -0.214233   
N        N      0.130200000000     0.527000000000     0.000080000000    -0.214233   
N        N      0.101500000000     0.497500000000     0.949190000000    -0.214233   
N        N      0.196200000000     0.469200000000     0.870540000000    -0.214233   
N        N      0.977500000000     0.275200000000     0.950870000000    -0.214233   
N        N      0.973000000000     0.130200000000     0.000080000000    -0.214233   
N        N      0.002500000000     0.101500000000     0.949190000000    -0.214233   
N        N      0.030800000000     0.196200000000     0.870540000000    -0.214233   
N        N      0.522500000000     0.224800000000     0.950870000000    -0.214233   
N        N      0.527000000000     0.369800000000     0.000080000000    -0.214233   
N        N      0.497500000000     0.398500000000     0.949190000000    -0.214233   
N        N      0.469200000000     0.303800000000     0.870540000000    -0.214233   
O        O      0.146700000000     0.948000000000     0.383480000000    -0.298682   
O        O      0.011800000000     0.911700000000     0.332570000000    -0.298682   
O        O      0.353300000000     0.552000000000     0.383480000000    -0.298682   
O        O      0.488200000000     0.588300000000     0.332570000000    -0.298682   
O        O      0.552000000000     0.146700000000     0.383480000000    -0.298682   
O        O      0.588300000000     0.011800000000     0.332570000000    -0.298682   
O        O      0.948000000000     0.353300000000     0.383480000000    -0.298682   
O        O      0.911700000000     0.488200000000     0.332570000000    -0.298682   
O        O      0.353300000000     0.948000000000     0.116520000000    -0.298682   
O        O      0.488200000000     0.911700000000     0.167430000000    -0.298682   
O        O      0.146700000000     0.552000000000     0.116520000000    -0.298682   
O        O      0.011800000000     0.588300000000     0.167430000000    -0.298682   
O        O      0.948000000000     0.146700000000     0.116520000000    -0.298682   
O        O      0.911700000000     0.011800000000     0.167430000000    -0.298682   
O        O      0.552000000000     0.353300000000     0.116520000000    -0.298682   
O        O      0.588300000000     0.488200000000     0.167430000000    -0.298682   
O        O      0.853300000000     0.052000000000     0.616520000000    -0.298682   
O        O      0.988200000000     0.088300000000     0.667430000000    -0.298682   
O        O      0.646700000000     0.448000000000     0.616520000000    -0.298682   
O        O      0.511800000000     0.411700000000     0.667430000000    -0.298682   
O        O      0.448000000000     0.853300000000     0.616520000000    -0.298682   
O        O      0.411700000000     0.988200000000     0.667430000000    -0.298682   
O        O      0.052000000000     0.646700000000     0.616520000000    -0.298682   
O        O      0.088300000000     0.511800000000     0.667430000000    -0.298682   
O        O      0.646700000000     0.052000000000     0.883480000000    -0.298682   
O        O      0.511800000000     0.088300000000     0.832570000000    -0.298682   
O        O      0.853300000000     0.448000000000     0.883480000000    -0.298682   
O        O      0.988200000000     0.411700000000     0.832570000000    -0.298682   
O        O      0.052000000000     0.853300000000     0.883480000000    -0.298682   
O        O      0.088300000000     0.988200000000     0.832570000000    -0.298682   
O        O      0.448000000000     0.646700000000     0.883480000000    -0.298682   
O        O      0.411700000000     0.511800000000     0.832570000000    -0.298682   


