data_PEVQAK_original

_audit_creation_method RASPA-1.0
_audit_creation_date 2022-1-28
_audit_author_name 'Felipe Lopes de Oliveira <felipe.lopes.oliveira@ibm.com>'

_cell_length_a    18.126
_cell_length_b    18.126
_cell_length_c    18.126
_cell_angle_alpha 60
_cell_angle_beta  60
_cell_angle_gamma 60
_cell_volume      4211.06

_symmetry_cell_setting          triclinic
_symmetry_space_group_name_Hall 'P 1'
_symmetry_space_group_name_H-M  'P 1'
_symmetry_Int_Tables_number     1

_symmetry_equiv_pos_as_xyz 'x,y,z'

loop_
_atom_site_label
_atom_site_type_symbol
_atom_site_fract_x
_atom_site_fract_y
_atom_site_fract_z
_atom_site_charge
Zn       Zn     0.043330000000     0.043330000000     0.043330000000     0.495919   
Zn       Zn     0.043330000000     0.043330000000     0.870010000000     0.495919   
Zn       Zn     0.043330000000     0.870010000000     0.043330000000     0.495919   
Zn       Zn     0.870010000000     0.043330000000     0.043330000000     0.495919   
Zn       Zn     0.456680000000     0.456680000000     0.629960000000     0.495919   
Zn       Zn     0.456680000000     0.456680000000     0.456680000000     0.495919   
Zn       Zn     0.629960000000     0.456680000000     0.456680000000     0.495919   
Zn       Zn     0.456680000000     0.629960000000     0.456680000000     0.495919   
H        H      0.292300000000     0.292300000000     0.814500000000     0.0764066  
H        H      0.292300000000     0.292300000000     0.600900000000     0.0764066  
H        H      0.814500000000     0.600900000000     0.292300000000     0.0764066  
H        H      0.600900000000     0.814500000000     0.292300000000     0.0764066  
H        H      0.292300000000     0.814500000000     0.600900000000     0.0764066  
H        H      0.292300000000     0.600900000000     0.814500000000     0.0764066  
H        H      0.814500000000     0.292300000000     0.292300000000     0.0764066  
H        H      0.600900000000     0.292300000000     0.292300000000     0.0764066  
H        H      0.292300000000     0.600900000000     0.292300000000     0.0764066  
H        H      0.292300000000     0.814500000000     0.292300000000     0.0764066  
H        H      0.814500000000     0.292300000000     0.600900000000     0.0764066  
H        H      0.600900000000     0.292300000000     0.814500000000     0.0764066  
C        C      0.225000000000     0.225000000000     0.838400000000     0.0714667  
C        C      0.275600000000     0.275600000000     0.785600000000     0.0714667  
C        C      0.225000000000     0.225000000000     0.711600000000     0.0714667  
C        C      0.275600000000     0.275600000000     0.663200000000     0.0714667  
C        C      0.838400000000     0.711600000000     0.225000000000     0.0714667  
C        C      0.785600000000     0.663200000000     0.275600000000     0.0714667  
C        C      0.711600000000     0.838400000000     0.225000000000     0.0714667  
C        C      0.663200000000     0.785600000000     0.275600000000     0.0714667  
C        C      0.225000000000     0.838400000000     0.711600000000     0.0714667  
C        C      0.275600000000     0.785600000000     0.663200000000     0.0714667  
C        C      0.225000000000     0.711600000000     0.838400000000     0.0714667  
C        C      0.275600000000     0.663200000000     0.785600000000     0.0714667  
C        C      0.838400000000     0.225000000000     0.225000000000     0.0714667  
C        C      0.785600000000     0.275600000000     0.275600000000     0.0714667  
C        C      0.711600000000     0.225000000000     0.225000000000     0.0714667  
C        C      0.663200000000     0.275600000000     0.275600000000     0.0714667  
C        C      0.225000000000     0.711600000000     0.225000000000     0.0714667  
C        C      0.275600000000     0.663200000000     0.275600000000     0.0714667  
C        C      0.225000000000     0.838400000000     0.225000000000     0.0714667  
C        C      0.275600000000     0.785600000000     0.275600000000     0.0714667  
C        C      0.838400000000     0.225000000000     0.711600000000     0.0714667  
C        C      0.785600000000     0.275600000000     0.663200000000     0.0714667  
C        C      0.711600000000     0.225000000000     0.838400000000     0.0714667  
C        C      0.663200000000     0.275600000000     0.785600000000     0.0714667  
C        C      0.136500000000     0.136500000000     0.863500000000     0.0714667  
C        C      0.200500000000     0.200500000000     0.799500000000     0.0714667  
C        C      0.358400000000     0.358400000000     0.641600000000     0.0714667  
C        C      0.307900000000     0.307900000000     0.692100000000     0.0714667  
C        C      0.863500000000     0.863500000000     0.136500000000     0.0714667  
C        C      0.799500000000     0.799500000000     0.200500000000     0.0714667  
C        C      0.641600000000     0.641600000000     0.358400000000     0.0714667  
C        C      0.692100000000     0.692100000000     0.307900000000     0.0714667  
C        C      0.136500000000     0.863500000000     0.863500000000     0.0714667  
C        C      0.200500000000     0.799500000000     0.799500000000     0.0714667  
C        C      0.358400000000     0.641600000000     0.641600000000     0.0714667  
C        C      0.307900000000     0.692100000000     0.692100000000     0.0714667  
C        C      0.863500000000     0.136500000000     0.136500000000     0.0714667  
C        C      0.799500000000     0.200500000000     0.200500000000     0.0714667  
C        C      0.641600000000     0.358400000000     0.358400000000     0.0714667  
C        C      0.692100000000     0.307900000000     0.307900000000     0.0714667  
C        C      0.136500000000     0.863500000000     0.136500000000     0.0714667  
C        C      0.200500000000     0.799500000000     0.200500000000     0.0714667  
C        C      0.358400000000     0.641600000000     0.358400000000     0.0714667  
C        C      0.307900000000     0.692100000000     0.307900000000     0.0714667  
C        C      0.863500000000     0.136500000000     0.863500000000     0.0714667  
C        C      0.799500000000     0.200500000000     0.799500000000     0.0714667  
C        C      0.641600000000     0.358400000000     0.641600000000     0.0714667  
C        C      0.692100000000     0.307900000000     0.692100000000     0.0714667  
O        O      0.500000000000     0.500000000000     0.500000000000    -0.319794   
O        O      0.000000000000     0.000000000000     0.000000000000    -0.319794   
O        O      0.114500000000     0.114500000000     0.946300000000    -0.319794   
O        O      0.383300000000     0.383300000000     0.677100000000    -0.319794   
O        O      0.114500000000     0.114500000000     0.824700000000    -0.319794   
O        O      0.383300000000     0.383300000000     0.556300000000    -0.319794   
O        O      0.946300000000     0.824700000000     0.114500000000    -0.319794   
O        O      0.677100000000     0.556300000000     0.383300000000    -0.319794   
O        O      0.824700000000     0.946300000000     0.114500000000    -0.319794   
O        O      0.556300000000     0.677100000000     0.383300000000    -0.319794   
O        O      0.114500000000     0.946300000000     0.824700000000    -0.319794   
O        O      0.383300000000     0.677100000000     0.556300000000    -0.319794   
O        O      0.114500000000     0.824700000000     0.946300000000    -0.319794   
O        O      0.383300000000     0.556300000000     0.677100000000    -0.319794   
O        O      0.946300000000     0.114500000000     0.114500000000    -0.319794   
O        O      0.677100000000     0.383300000000     0.383300000000    -0.319794   
O        O      0.824700000000     0.114500000000     0.114500000000    -0.319794   
O        O      0.556300000000     0.383300000000     0.383300000000    -0.319794   
O        O      0.114500000000     0.824700000000     0.114500000000    -0.319794   
O        O      0.383300000000     0.556300000000     0.383300000000    -0.319794   
O        O      0.114500000000     0.946300000000     0.114500000000    -0.319794   
O        O      0.383300000000     0.677100000000     0.383300000000    -0.319794   
O        O      0.946300000000     0.114500000000     0.824700000000    -0.319794   
O        O      0.677100000000     0.383300000000     0.556300000000    -0.319794   
O        O      0.824700000000     0.114500000000     0.946300000000    -0.319794   
O        O      0.556300000000     0.383300000000     0.677100000000    -0.319794   


