data_PEVQIS_original

_audit_creation_method RASPA-1.0
_audit_creation_date 2022-1-30
_audit_author_name 'Felipe Lopes de Oliveira <felipe.lopes.oliveira@ibm.com>'

_cell_length_a    18.1401
_cell_length_b    18.1401
_cell_length_c    18.1401
_cell_angle_alpha 60
_cell_angle_beta  60
_cell_angle_gamma 60
_cell_volume      4220.9

_symmetry_cell_setting          triclinic
_symmetry_space_group_name_Hall 'P 1'
_symmetry_space_group_name_H-M  'P 1'
_symmetry_Int_Tables_number     1

_symmetry_equiv_pos_as_xyz 'x,y,z'

loop_
_atom_site_label
_atom_site_type_symbol
_atom_site_fract_x
_atom_site_fract_y
_atom_site_fract_z
_atom_site_charge
Zn       Zn     0.619170000000     0.793610000000     0.793610000000     0.462071   
Zn       Zn     0.793610000000     0.793610000000     0.793610000000     0.462071   
Zn       Zn     0.793610000000     0.793610000000     0.619170000000     0.462071   
Zn       Zn     0.793610000000     0.619170000000     0.793610000000     0.462071   
Zn       Zn     0.206390000000     0.206390000000     0.206390000000     0.462071   
Zn       Zn     0.380830000000     0.206390000000     0.206390000000     0.462071   
Zn       Zn     0.206390000000     0.206390000000     0.380830000000     0.462071   
Zn       Zn     0.206390000000     0.380830000000     0.206390000000     0.462071   
H        H      0.420270000000     0.959670000000     0.660390000000     0.0540308  
H        H      0.959670000000     0.660390000000     0.959670000000     0.0540308  
H        H      0.660390000000     0.959670000000     0.420270000000     0.0540308  
H        H      0.959670000000     0.420270000000     0.959670000000     0.0540308  
H        H      0.420270000000     0.959670000000     0.959670000000     0.0540308  
H        H      0.959670000000     0.420270000000     0.660390000000     0.0540308  
H        H      0.660390000000     0.959670000000     0.959670000000     0.0540308  
H        H      0.959670000000     0.660390000000     0.420270000000     0.0540308  
H        H      0.420270000000     0.660390000000     0.959670000000     0.0540308  
H        H      0.959670000000     0.959670000000     0.420270000000     0.0540308  
H        H      0.660390000000     0.420270000000     0.959670000000     0.0540308  
H        H      0.959670000000     0.959670000000     0.660390000000     0.0540308  
H        H      0.040330000000     0.040330000000     0.339610000000     0.0540308  
H        H      0.579730000000     0.339610000000     0.040330000000     0.0540308  
H        H      0.040330000000     0.040330000000     0.579730000000     0.0540308  
H        H      0.339610000000     0.579730000000     0.040330000000     0.0540308  
H        H      0.339610000000     0.040330000000     0.040330000000     0.0540308  
H        H      0.040330000000     0.579730000000     0.339610000000     0.0540308  
H        H      0.579730000000     0.040330000000     0.040330000000     0.0540308  
H        H      0.040330000000     0.339610000000     0.579730000000     0.0540308  
H        H      0.040330000000     0.339610000000     0.040330000000     0.0540308  
H        H      0.339610000000     0.040330000000     0.579730000000     0.0540308  
H        H      0.040330000000     0.579730000000     0.040330000000     0.0540308  
H        H      0.579730000000     0.040330000000     0.339610000000     0.0540308  
C        C      0.460800000000     0.977000000000     0.585200000000     0.0442328  
C        C      0.977000000000     0.585200000000     0.977000000000     0.0442328  
C        C      0.585200000000     0.977000000000     0.460800000000     0.0442328  
C        C      0.977000000000     0.460800000000     0.977000000000     0.0442328  
C        C      0.460800000000     0.977000000000     0.977000000000     0.0442328  
C        C      0.977000000000     0.460800000000     0.585200000000     0.0442328  
C        C      0.585200000000     0.977000000000     0.977000000000     0.0442328  
C        C      0.977000000000     0.585200000000     0.460800000000     0.0442328  
C        C      0.460800000000     0.585200000000     0.977000000000     0.0442328  
C        C      0.977000000000     0.977000000000     0.460800000000     0.0442328  
C        C      0.585200000000     0.460800000000     0.977000000000     0.0442328  
C        C      0.977000000000     0.977000000000     0.585200000000     0.0442328  
C        C      0.023000000000     0.023000000000     0.414800000000     0.0442328  
C        C      0.539200000000     0.414800000000     0.023000000000     0.0442328  
C        C      0.023000000000     0.023000000000     0.539200000000     0.0442328  
C        C      0.414800000000     0.539200000000     0.023000000000     0.0442328  
C        C      0.414800000000     0.023000000000     0.023000000000     0.0442328  
C        C      0.023000000000     0.539200000000     0.414800000000     0.0442328  
C        C      0.539200000000     0.023000000000     0.023000000000     0.0442328  
C        C      0.023000000000     0.414800000000     0.539200000000     0.0442328  
C        C      0.023000000000     0.414800000000     0.023000000000     0.0442328  
C        C      0.414800000000     0.023000000000     0.539200000000     0.0442328  
C        C      0.023000000000     0.539200000000     0.023000000000     0.0442328  
C        C      0.539200000000     0.023000000000     0.414800000000     0.0442328  
C        C      0.615200000000     0.884800000000     0.615200000000     0.0442328  
C        C      0.556200000000     0.943800000000     0.556200000000     0.0442328  
C        C      0.884800000000     0.615200000000     0.884800000000     0.0442328  
C        C      0.943800000000     0.556200000000     0.943800000000     0.0442328  
C        C      0.615200000000     0.884800000000     0.884800000000     0.0442328  
C        C      0.556200000000     0.943800000000     0.943800000000     0.0442328  
C        C      0.884800000000     0.615200000000     0.615200000000     0.0442328  
C        C      0.943800000000     0.556200000000     0.556200000000     0.0442328  
C        C      0.615200000000     0.615200000000     0.884800000000     0.0442328  
C        C      0.556200000000     0.556200000000     0.943800000000     0.0442328  
C        C      0.884800000000     0.884800000000     0.615200000000     0.0442328  
C        C      0.943800000000     0.943800000000     0.556200000000     0.0442328  
C        C      0.115200000000     0.115200000000     0.384800000000     0.0442328  
C        C      0.056200000000     0.056200000000     0.443800000000     0.0442328  
C        C      0.384800000000     0.384800000000     0.115200000000     0.0442328  
C        C      0.443800000000     0.443800000000     0.056200000000     0.0442328  
C        C      0.384800000000     0.115200000000     0.115200000000     0.0442328  
C        C      0.443800000000     0.056200000000     0.056200000000     0.0442328  
C        C      0.115200000000     0.384800000000     0.384800000000     0.0442328  
C        C      0.056200000000     0.443800000000     0.443800000000     0.0442328  
C        C      0.115200000000     0.384800000000     0.115200000000     0.0442328  
C        C      0.056200000000     0.443800000000     0.056200000000     0.0442328  
C        C      0.384800000000     0.115200000000     0.384800000000     0.0442328  
C        C      0.443800000000     0.056200000000     0.443800000000     0.0442328  
O        O      0.562600000000     0.866600000000     0.704200000000    -0.273711   
O        O      0.866600000000     0.704200000000     0.866600000000    -0.273711   
O        O      0.704200000000     0.866600000000     0.562600000000    -0.273711   
O        O      0.866600000000     0.562600000000     0.866600000000    -0.273711   
O        O      0.562600000000     0.866600000000     0.866600000000    -0.273711   
O        O      0.866600000000     0.562600000000     0.704200000000    -0.273711   
O        O      0.704200000000     0.866600000000     0.866600000000    -0.273711   
O        O      0.866600000000     0.704200000000     0.562600000000    -0.273711   
O        O      0.562600000000     0.704200000000     0.866600000000    -0.273711   
O        O      0.866600000000     0.866600000000     0.562600000000    -0.273711   
O        O      0.704200000000     0.562600000000     0.866600000000    -0.273711   
O        O      0.866600000000     0.866600000000     0.704200000000    -0.273711   
O        O      0.133400000000     0.133400000000     0.295800000000    -0.273711   
O        O      0.437400000000     0.295800000000     0.133400000000    -0.273711   
O        O      0.133400000000     0.133400000000     0.437400000000    -0.273711   
O        O      0.295800000000     0.437400000000     0.133400000000    -0.273711   
O        O      0.295800000000     0.133400000000     0.133400000000    -0.273711   
O        O      0.133400000000     0.437400000000     0.295800000000    -0.273711   
O        O      0.437400000000     0.133400000000     0.133400000000    -0.273711   
O        O      0.133400000000     0.295800000000     0.437400000000    -0.273711   
O        O      0.133400000000     0.295800000000     0.133400000000    -0.273711   
O        O      0.295800000000     0.133400000000     0.437400000000    -0.273711   
O        O      0.133400000000     0.437400000000     0.133400000000    -0.273711   
O        O      0.437400000000     0.133400000000     0.295800000000    -0.273711   
O        O      0.750000000000     0.750000000000     0.750000000000    -0.273711   
O        O      0.250000000000     0.250000000000     0.250000000000    -0.273711   


