data_PIJJOI_original

_audit_creation_method RASPA-1.0
_audit_creation_date 2022-1-30
_audit_author_name 'Felipe Lopes de Oliveira <felipe.lopes.oliveira@ibm.com>'

_cell_length_a    16.2045
_cell_length_b    17.6022
_cell_length_c    17.9025
_cell_angle_alpha 90
_cell_angle_beta  90
_cell_angle_gamma 90
_cell_volume      5106.42

_symmetry_cell_setting          triclinic
_symmetry_space_group_name_Hall 'P 1'
_symmetry_space_group_name_H-M  'P 1'
_symmetry_Int_Tables_number     1

_symmetry_equiv_pos_as_xyz 'x,y,z'

loop_
_atom_site_label
_atom_site_type_symbol
_atom_site_fract_x
_atom_site_fract_y
_atom_site_fract_z
_atom_site_charge
Zn       Zn     0.274790000000     0.899170000000     0.617030000000     0.417519   
Zn       Zn     0.774790000000     0.600830000000     0.382970000000     0.417519   
Zn       Zn     0.774790000000     0.399170000000     0.882970000000     0.417519   
Zn       Zn     0.274790000000     0.100830000000     0.117030000000     0.417519   
Zn       Zn     0.225210000000     0.600830000000     0.117030000000     0.417519   
Zn       Zn     0.725210000000     0.899170000000     0.882970000000     0.417519   
Zn       Zn     0.725210000000     0.100830000000     0.382970000000     0.417519   
Zn       Zn     0.225210000000     0.399170000000     0.617030000000     0.417519   
H        H      0.286700000000     0.075600000000     0.578500000000     0.207964   
H        H      0.150000000000     0.008600000000     0.195000000000     0.207964   
H        H      0.225200000000     0.852200000000     0.445300000000     0.207964   
H        H      0.321500000000     0.851300000000     0.453500000000     0.207964   
H        H      0.281000000000     0.877900000000     0.378400000000     0.207964   
H        H      0.261600000000     0.190000000000     0.510800000000     0.207964   
H        H      0.209300000000     0.178800000000     0.437900000000     0.207964   
H        H      0.305700000000     0.184800000000     0.433000000000     0.207964   
H        H      0.096000000000     0.913600000000     0.308700000000     0.207964   
H        H      0.051400000000     0.992200000000     0.317000000000     0.207964   
H        H      0.102700000000     0.959000000000     0.383700000000     0.207964   
H        H      0.409300000000     0.091000000000     0.253000000000     0.207964   
H        H      0.396300000000     0.094700000000     0.339700000000     0.207964   
H        H      0.362200000000     0.159800000000     0.288700000000     0.207964   
H        H      0.084000000000     0.739000000000     0.552100000000     0.207964   
H        H      0.989700000000     0.678300000000     0.476100000000     0.207964   
H        H      0.896000000000     0.878800000000     0.415300000000     0.207964   
H        H      0.985000000000     0.939200000000     0.496400000000     0.207964   
H        H      0.786700000000     0.424400000000     0.421500000000     0.207964   
H        H      0.650000000000     0.491400000000     0.805000000000     0.207964   
H        H      0.725200000000     0.647800000000     0.554700000000     0.207964   
H        H      0.821500000000     0.648700000000     0.546500000000     0.207964   
H        H      0.781000000000     0.622100000000     0.621600000000     0.207964   
H        H      0.761600000000     0.310000000000     0.489200000000     0.207964   
H        H      0.709300000000     0.321200000000     0.562100000000     0.207964   
H        H      0.805700000000     0.315200000000     0.567000000000     0.207964   
H        H      0.596000000000     0.586400000000     0.691300000000     0.207964   
H        H      0.551400000000     0.507800000000     0.683000000000     0.207964   
H        H      0.602700000000     0.541000000000     0.616300000000     0.207964   
H        H      0.909300000000     0.409000000000     0.747000000000     0.207964   
H        H      0.896300000000     0.405300000000     0.660300000000     0.207964   
H        H      0.862200000000     0.340200000000     0.711300000000     0.207964   
H        H      0.584000000000     0.761000000000     0.447900000000     0.207964   
H        H      0.489700000000     0.821700000000     0.523900000000     0.207964   
H        H      0.396000000000     0.621200000000     0.584700000000     0.207964   
H        H      0.485000000000     0.560800000000     0.503600000000     0.207964   
H        H      0.786700000000     0.575600000000     0.921500000000     0.207964   
H        H      0.650000000000     0.508600000000     0.305000000000     0.207964   
H        H      0.725200000000     0.352200000000     0.054700000000     0.207964   
H        H      0.821500000000     0.351300000000     0.046500000000     0.207964   
H        H      0.781000000000     0.377900000000     0.121600000000     0.207964   
H        H      0.761600000000     0.690000000000     0.989200000000     0.207964   
H        H      0.709300000000     0.678800000000     0.062100000000     0.207964   
H        H      0.805700000000     0.684800000000     0.067000000000     0.207964   
H        H      0.596000000000     0.413600000000     0.191300000000     0.207964   
H        H      0.551400000000     0.492200000000     0.183000000000     0.207964   
H        H      0.602700000000     0.459000000000     0.116300000000     0.207964   
H        H      0.909300000000     0.591000000000     0.247000000000     0.207964   
H        H      0.896300000000     0.594700000000     0.160300000000     0.207964   
H        H      0.862200000000     0.659800000000     0.211300000000     0.207964   
H        H      0.584000000000     0.239000000000     0.947900000000     0.207964   
H        H      0.489700000000     0.178300000000     0.023900000000     0.207964   
H        H      0.396000000000     0.378800000000     0.084700000000     0.207964   
H        H      0.485000000000     0.439200000000     0.003600000000     0.207964   
H        H      0.286700000000     0.924400000000     0.078500000000     0.207964   
H        H      0.150000000000     0.991400000000     0.695000000000     0.207964   
H        H      0.225200000000     0.147800000000     0.945300000000     0.207964   
H        H      0.321500000000     0.148700000000     0.953500000000     0.207964   
H        H      0.281000000000     0.122100000000     0.878400000000     0.207964   
H        H      0.261600000000     0.810000000000     0.010800000000     0.207964   
H        H      0.209300000000     0.821200000000     0.937900000000     0.207964   
H        H      0.305700000000     0.815200000000     0.933000000000     0.207964   
H        H      0.096000000000     0.086400000000     0.808700000000     0.207964   
H        H      0.051400000000     0.007800000000     0.817000000000     0.207964   
H        H      0.102700000000     0.041000000000     0.883700000000     0.207964   
H        H      0.409300000000     0.909000000000     0.753000000000     0.207964   
H        H      0.396300000000     0.905300000000     0.839700000000     0.207964   
H        H      0.362200000000     0.840200000000     0.788700000000     0.207964   
H        H      0.084000000000     0.261000000000     0.052100000000     0.207964   
H        H      0.989700000000     0.321700000000     0.976100000000     0.207964   
H        H      0.896000000000     0.121200000000     0.915300000000     0.207964   
H        H      0.985000000000     0.060800000000     0.996400000000     0.207964   
H        H      0.213300000000     0.424400000000     0.078500000000     0.207964   
H        H      0.350000000000     0.491400000000     0.695000000000     0.207964   
H        H      0.274800000000     0.647800000000     0.945300000000     0.207964   
H        H      0.178500000000     0.648700000000     0.953500000000     0.207964   
H        H      0.219000000000     0.622100000000     0.878400000000     0.207964   
H        H      0.238400000000     0.310000000000     0.010800000000     0.207964   
H        H      0.290700000000     0.321200000000     0.937900000000     0.207964   
H        H      0.194300000000     0.315200000000     0.933000000000     0.207964   
H        H      0.404000000000     0.586400000000     0.808700000000     0.207964   
H        H      0.448600000000     0.507800000000     0.817000000000     0.207964   
H        H      0.397300000000     0.541000000000     0.883700000000     0.207964   
H        H      0.090700000000     0.409000000000     0.753000000000     0.207964   
H        H      0.103700000000     0.405300000000     0.839700000000     0.207964   
H        H      0.137800000000     0.340200000000     0.788700000000     0.207964   
H        H      0.416000000000     0.761000000000     0.052100000000     0.207964   
H        H      0.510300000000     0.821700000000     0.976100000000     0.207964   
H        H      0.604000000000     0.621200000000     0.915300000000     0.207964   
H        H      0.515000000000     0.560800000000     0.996400000000     0.207964   
H        H      0.713300000000     0.075600000000     0.921500000000     0.207964   
H        H      0.850000000000     0.008600000000     0.305000000000     0.207964   
H        H      0.774800000000     0.852200000000     0.054700000000     0.207964   
H        H      0.678500000000     0.851300000000     0.046500000000     0.207964   
H        H      0.719000000000     0.877900000000     0.121600000000     0.207964   
H        H      0.738400000000     0.190000000000     0.989200000000     0.207964   
H        H      0.790700000000     0.178800000000     0.062100000000     0.207964   
H        H      0.694300000000     0.184800000000     0.067000000000     0.207964   
H        H      0.904000000000     0.913600000000     0.191300000000     0.207964   
H        H      0.948600000000     0.992200000000     0.183000000000     0.207964   
H        H      0.897300000000     0.959000000000     0.116300000000     0.207964   
H        H      0.590700000000     0.091000000000     0.247000000000     0.207964   
H        H      0.603700000000     0.094700000000     0.160300000000     0.207964   
H        H      0.637800000000     0.159800000000     0.211300000000     0.207964   
H        H      0.916000000000     0.739000000000     0.947900000000     0.207964   
H        H      0.010300000000     0.678300000000     0.023900000000     0.207964   
H        H      0.104000000000     0.878800000000     0.084700000000     0.207964   
H        H      0.015000000000     0.939200000000     0.003600000000     0.207964   
H        H      0.713300000000     0.924400000000     0.421500000000     0.207964   
H        H      0.850000000000     0.991400000000     0.805000000000     0.207964   
H        H      0.774800000000     0.147800000000     0.554700000000     0.207964   
H        H      0.678500000000     0.148700000000     0.546500000000     0.207964   
H        H      0.719000000000     0.122100000000     0.621600000000     0.207964   
H        H      0.738400000000     0.810000000000     0.489200000000     0.207964   
H        H      0.790700000000     0.821200000000     0.562100000000     0.207964   
H        H      0.694300000000     0.815200000000     0.567000000000     0.207964   
H        H      0.904000000000     0.086400000000     0.691300000000     0.207964   
H        H      0.948600000000     0.007800000000     0.683000000000     0.207964   
H        H      0.897300000000     0.041000000000     0.616300000000     0.207964   
H        H      0.590700000000     0.909000000000     0.747000000000     0.207964   
H        H      0.603700000000     0.905300000000     0.660300000000     0.207964   
H        H      0.637800000000     0.840200000000     0.711300000000     0.207964   
H        H      0.916000000000     0.261000000000     0.447900000000     0.207964   
H        H      0.010300000000     0.321700000000     0.523900000000     0.207964   
H        H      0.104000000000     0.121200000000     0.584700000000     0.207964   
H        H      0.015000000000     0.060800000000     0.503600000000     0.207964   
H        H      0.213300000000     0.575600000000     0.578500000000     0.207964   
H        H      0.350000000000     0.508600000000     0.195000000000     0.207964   
H        H      0.274800000000     0.352200000000     0.445300000000     0.207964   
H        H      0.178500000000     0.351300000000     0.453500000000     0.207964   
H        H      0.219000000000     0.377900000000     0.378400000000     0.207964   
H        H      0.238400000000     0.690000000000     0.510800000000     0.207964   
H        H      0.290700000000     0.678800000000     0.437900000000     0.207964   
H        H      0.194300000000     0.684800000000     0.433000000000     0.207964   
H        H      0.404000000000     0.413600000000     0.308700000000     0.207964   
H        H      0.448600000000     0.492200000000     0.317000000000     0.207964   
H        H      0.397300000000     0.459000000000     0.383700000000     0.207964   
H        H      0.090700000000     0.591000000000     0.253000000000     0.207964   
H        H      0.103700000000     0.594700000000     0.339700000000     0.207964   
H        H      0.137800000000     0.659800000000     0.288700000000     0.207964   
H        H      0.416000000000     0.239000000000     0.552100000000     0.207964   
H        H      0.510300000000     0.178300000000     0.476100000000     0.207964   
H        H      0.604000000000     0.378800000000     0.415300000000     0.207964   
H        H      0.515000000000     0.439200000000     0.496400000000     0.207964   
C        C      0.275500000000     0.877570000000     0.431790000000    -0.120802   
C        C      0.273500000000     0.957400000000     0.459980000000    -0.120802   
C        C      0.261130000000     0.024320000000     0.419410000000    -0.120802   
C        C      0.266960000000     0.082660000000     0.470890000000    -0.120802   
C        C      0.260300000000     0.166510000000     0.462370000000    -0.120802   
C        C      0.099500000000     0.963400000000     0.330360000000    -0.120802   
C        C      0.174920000000     0.002800000000     0.301780000000    -0.120802   
C        C      0.243650000000     0.030530000000     0.339020000000    -0.120802   
C        C      0.292720000000     0.064430000000     0.284140000000    -0.120802   
C        C      0.372200000000     0.106200000000     0.292110000000    -0.120802   
C        C      0.107520000000     0.885220000000     0.579570000000    -0.120802   
C        C      0.044540000000     0.845440000000     0.531720000000    -0.120802   
C        C      0.045670000000     0.767300000000     0.525260000000    -0.120802   
C        C      0.989880000000     0.731060000000     0.478830000000    -0.120802   
C        C      0.933310000000     0.850380000000     0.443250000000    -0.120802   
C        C      0.987230000000     0.886690000000     0.491250000000    -0.120802   
C        C      0.872280000000     0.731990000000     0.388170000000    -0.120802   
C        C      0.934360000000     0.772370000000     0.436490000000    -0.120802   
C        C      0.775500000000     0.622430000000     0.568210000000    -0.120802   
C        C      0.773500000000     0.542600000000     0.540020000000    -0.120802   
C        C      0.761130000000     0.475680000000     0.580590000000    -0.120802   
C        C      0.766960000000     0.417340000000     0.529110000000    -0.120802   
C        C      0.760300000000     0.333490000000     0.537630000000    -0.120802   
C        C      0.599500000000     0.536600000000     0.669640000000    -0.120802   
C        C      0.674920000000     0.497200000000     0.698220000000    -0.120802   
C        C      0.743650000000     0.469470000000     0.660980000000    -0.120802   
C        C      0.792720000000     0.435570000000     0.715860000000    -0.120802   
C        C      0.872200000000     0.393800000000     0.707890000000    -0.120802   
C        C      0.607520000000     0.614780000000     0.420430000000    -0.120802   
C        C      0.544540000000     0.654560000000     0.468280000000    -0.120802   
C        C      0.545670000000     0.732700000000     0.474740000000    -0.120802   
C        C      0.489880000000     0.768940000000     0.521170000000    -0.120802   
C        C      0.433310000000     0.649620000000     0.556750000000    -0.120802   
C        C      0.487230000000     0.613310000000     0.508750000000    -0.120802   
C        C      0.372280000000     0.768010000000     0.611830000000    -0.120802   
C        C      0.434360000000     0.727630000000     0.563510000000    -0.120802   
C        C      0.775500000000     0.377570000000     0.068210000000    -0.120802   
C        C      0.773500000000     0.457400000000     0.040020000000    -0.120802   
C        C      0.761130000000     0.524320000000     0.080590000000    -0.120802   
C        C      0.766960000000     0.582660000000     0.029110000000    -0.120802   
C        C      0.760300000000     0.666510000000     0.037630000000    -0.120802   
C        C      0.599500000000     0.463400000000     0.169640000000    -0.120802   
C        C      0.674920000000     0.502800000000     0.198220000000    -0.120802   
C        C      0.743650000000     0.530530000000     0.160980000000    -0.120802   
C        C      0.792720000000     0.564430000000     0.215860000000    -0.120802   
C        C      0.872200000000     0.606200000000     0.207890000000    -0.120802   
C        C      0.607520000000     0.385220000000     0.920430000000    -0.120802   
C        C      0.544540000000     0.345440000000     0.968280000000    -0.120802   
C        C      0.545670000000     0.267300000000     0.974740000000    -0.120802   
C        C      0.489880000000     0.231060000000     0.021170000000    -0.120802   
C        C      0.433310000000     0.350380000000     0.056750000000    -0.120802   
C        C      0.487230000000     0.386690000000     0.008750000000    -0.120802   
C        C      0.372280000000     0.231990000000     0.111830000000    -0.120802   
C        C      0.434360000000     0.272370000000     0.063510000000    -0.120802   
C        C      0.275500000000     0.122430000000     0.931790000000    -0.120802   
C        C      0.273500000000     0.042600000000     0.959980000000    -0.120802   
C        C      0.261130000000     0.975680000000     0.919410000000    -0.120802   
C        C      0.266960000000     0.917340000000     0.970890000000    -0.120802   
C        C      0.260300000000     0.833490000000     0.962370000000    -0.120802   
C        C      0.099500000000     0.036600000000     0.830360000000    -0.120802   
C        C      0.174920000000     0.997200000000     0.801780000000    -0.120802   
C        C      0.243650000000     0.969470000000     0.839020000000    -0.120802   
C        C      0.292720000000     0.935570000000     0.784140000000    -0.120802   
C        C      0.372200000000     0.893800000000     0.792110000000    -0.120802   
C        C      0.107520000000     0.114780000000     0.079570000000    -0.120802   
C        C      0.044540000000     0.154560000000     0.031720000000    -0.120802   
C        C      0.045670000000     0.232700000000     0.025260000000    -0.120802   
C        C      0.989880000000     0.268940000000     0.978830000000    -0.120802   
C        C      0.933310000000     0.149620000000     0.943250000000    -0.120802   
C        C      0.987230000000     0.113310000000     0.991250000000    -0.120802   
C        C      0.872280000000     0.268010000000     0.888170000000    -0.120802   
C        C      0.934360000000     0.227630000000     0.936490000000    -0.120802   
C        C      0.224500000000     0.622430000000     0.931790000000    -0.120802   
C        C      0.226500000000     0.542600000000     0.959980000000    -0.120802   
C        C      0.238870000000     0.475680000000     0.919410000000    -0.120802   
C        C      0.233040000000     0.417340000000     0.970890000000    -0.120802   
C        C      0.239700000000     0.333490000000     0.962370000000    -0.120802   
C        C      0.400500000000     0.536600000000     0.830360000000    -0.120802   
C        C      0.325080000000     0.497200000000     0.801780000000    -0.120802   
C        C      0.256350000000     0.469470000000     0.839020000000    -0.120802   
C        C      0.207280000000     0.435570000000     0.784140000000    -0.120802   
C        C      0.127800000000     0.393800000000     0.792110000000    -0.120802   
C        C      0.392480000000     0.614780000000     0.079570000000    -0.120802   
C        C      0.455460000000     0.654560000000     0.031720000000    -0.120802   
C        C      0.454330000000     0.732700000000     0.025260000000    -0.120802   
C        C      0.510120000000     0.768940000000     0.978830000000    -0.120802   
C        C      0.566690000000     0.649620000000     0.943250000000    -0.120802   
C        C      0.512770000000     0.613310000000     0.991250000000    -0.120802   
C        C      0.627720000000     0.768010000000     0.888170000000    -0.120802   
C        C      0.565640000000     0.727630000000     0.936490000000    -0.120802   
C        C      0.724500000000     0.877570000000     0.068210000000    -0.120802   
C        C      0.726500000000     0.957400000000     0.040020000000    -0.120802   
C        C      0.738870000000     0.024320000000     0.080590000000    -0.120802   
C        C      0.733040000000     0.082660000000     0.029110000000    -0.120802   
C        C      0.739700000000     0.166510000000     0.037630000000    -0.120802   
C        C      0.900500000000     0.963400000000     0.169640000000    -0.120802   
C        C      0.825080000000     0.002800000000     0.198220000000    -0.120802   
C        C      0.756350000000     0.030530000000     0.160980000000    -0.120802   
C        C      0.707280000000     0.064430000000     0.215860000000    -0.120802   
C        C      0.627800000000     0.106200000000     0.207890000000    -0.120802   
C        C      0.892480000000     0.885220000000     0.920430000000    -0.120802   
C        C      0.955460000000     0.845440000000     0.968280000000    -0.120802   
C        C      0.954330000000     0.767300000000     0.974740000000    -0.120802   
C        C      0.010120000000     0.731060000000     0.021170000000    -0.120802   
C        C      0.066690000000     0.850380000000     0.056750000000    -0.120802   
C        C      0.012770000000     0.886690000000     0.008750000000    -0.120802   
C        C      0.127720000000     0.731990000000     0.111830000000    -0.120802   
C        C      0.065640000000     0.772370000000     0.063510000000    -0.120802   
C        C      0.724500000000     0.122430000000     0.568210000000    -0.120802   
C        C      0.726500000000     0.042600000000     0.540020000000    -0.120802   
C        C      0.738870000000     0.975680000000     0.580590000000    -0.120802   
C        C      0.733040000000     0.917340000000     0.529110000000    -0.120802   
C        C      0.739700000000     0.833490000000     0.537630000000    -0.120802   
C        C      0.900500000000     0.036600000000     0.669640000000    -0.120802   
C        C      0.825080000000     0.997200000000     0.698220000000    -0.120802   
C        C      0.756350000000     0.969470000000     0.660980000000    -0.120802   
C        C      0.707280000000     0.935570000000     0.715860000000    -0.120802   
C        C      0.627800000000     0.893800000000     0.707890000000    -0.120802   
C        C      0.892480000000     0.114780000000     0.420430000000    -0.120802   
C        C      0.955460000000     0.154560000000     0.468280000000    -0.120802   
C        C      0.954330000000     0.232700000000     0.474740000000    -0.120802   
C        C      0.010120000000     0.268940000000     0.521170000000    -0.120802   
C        C      0.066690000000     0.149620000000     0.556750000000    -0.120802   
C        C      0.012770000000     0.113310000000     0.508750000000    -0.120802   
C        C      0.127720000000     0.268010000000     0.611830000000    -0.120802   
C        C      0.065640000000     0.227630000000     0.563510000000    -0.120802   
C        C      0.224500000000     0.377570000000     0.431790000000    -0.120802   
C        C      0.226500000000     0.457400000000     0.459980000000    -0.120802   
C        C      0.238870000000     0.524320000000     0.419410000000    -0.120802   
C        C      0.233040000000     0.582660000000     0.470890000000    -0.120802   
C        C      0.239700000000     0.666510000000     0.462370000000    -0.120802   
C        C      0.400500000000     0.463400000000     0.330360000000    -0.120802   
C        C      0.325080000000     0.502800000000     0.301780000000    -0.120802   
C        C      0.256350000000     0.530530000000     0.339020000000    -0.120802   
C        C      0.207280000000     0.564430000000     0.284140000000    -0.120802   
C        C      0.127800000000     0.606200000000     0.292110000000    -0.120802   
C        C      0.392480000000     0.385220000000     0.579570000000    -0.120802   
C        C      0.455460000000     0.345440000000     0.531720000000    -0.120802   
C        C      0.454330000000     0.267300000000     0.525260000000    -0.120802   
C        C      0.510120000000     0.231060000000     0.478830000000    -0.120802   
C        C      0.566690000000     0.350380000000     0.443250000000    -0.120802   
C        C      0.512770000000     0.386690000000     0.491250000000    -0.120802   
C        C      0.627720000000     0.231990000000     0.388170000000    -0.120802   
C        C      0.565640000000     0.272370000000     0.436490000000    -0.120802   
N        N      0.286200000000     0.973960000000     0.532430000000    -0.196159   
N        N      0.281270000000     0.050560000000     0.537490000000    -0.196159   
N        N      0.256020000000     0.057790000000     0.217490000000    -0.196159   
N        N      0.184780000000     0.020110000000     0.229460000000    -0.196159   
N        N      0.786200000000     0.526040000000     0.467570000000    -0.196159   
N        N      0.781270000000     0.449440000000     0.462510000000    -0.196159   
N        N      0.756020000000     0.442210000000     0.782510000000    -0.196159   
N        N      0.684780000000     0.479890000000     0.770540000000    -0.196159   
N        N      0.786200000000     0.473960000000     0.967570000000    -0.196159   
N        N      0.781270000000     0.550560000000     0.962510000000    -0.196159   
N        N      0.756020000000     0.557790000000     0.282510000000    -0.196159   
N        N      0.684780000000     0.520110000000     0.270540000000    -0.196159   
N        N      0.286200000000     0.026040000000     0.032430000000    -0.196159   
N        N      0.281270000000     0.949440000000     0.037490000000    -0.196159   
N        N      0.256020000000     0.942210000000     0.717490000000    -0.196159   
N        N      0.184780000000     0.979890000000     0.729460000000    -0.196159   
N        N      0.213800000000     0.526040000000     0.032430000000    -0.196159   
N        N      0.218730000000     0.449440000000     0.037490000000    -0.196159   
N        N      0.243980000000     0.442210000000     0.717490000000    -0.196159   
N        N      0.315220000000     0.479890000000     0.729460000000    -0.196159   
N        N      0.713800000000     0.973960000000     0.967570000000    -0.196159   
N        N      0.718730000000     0.050560000000     0.962510000000    -0.196159   
N        N      0.743980000000     0.057790000000     0.282510000000    -0.196159   
N        N      0.815220000000     0.020110000000     0.270540000000    -0.196159   
N        N      0.713800000000     0.026040000000     0.467570000000    -0.196159   
N        N      0.718730000000     0.949440000000     0.462510000000    -0.196159   
N        N      0.743980000000     0.942210000000     0.782510000000    -0.196159   
N        N      0.815220000000     0.979890000000     0.770540000000    -0.196159   
N        N      0.213800000000     0.473960000000     0.532430000000    -0.196159   
N        N      0.218730000000     0.550560000000     0.537490000000    -0.196159   
N        N      0.243980000000     0.557790000000     0.217490000000    -0.196159   
N        N      0.315220000000     0.520110000000     0.229460000000    -0.196159   
O        O      0.172800000000     0.846350000000     0.591990000000    -0.300452   
O        O      0.094810000000     0.950850000000     0.601740000000    -0.300452   
O        O      0.872170000000     0.660210000000     0.394930000000    -0.300452   
O        O      0.825630000000     0.768790000000     0.348260000000    -0.300452   
O        O      0.672800000000     0.653650000000     0.408010000000    -0.300452   
O        O      0.594810000000     0.549150000000     0.398260000000    -0.300452   
O        O      0.372170000000     0.839790000000     0.605070000000    -0.300452   
O        O      0.325630000000     0.731210000000     0.651740000000    -0.300452   
O        O      0.672800000000     0.346350000000     0.908010000000    -0.300452   
O        O      0.594810000000     0.450850000000     0.898260000000    -0.300452   
O        O      0.372170000000     0.160210000000     0.105070000000    -0.300452   
O        O      0.325630000000     0.268790000000     0.151740000000    -0.300452   
O        O      0.172800000000     0.153650000000     0.091990000000    -0.300452   
O        O      0.094810000000     0.049150000000     0.101740000000    -0.300452   
O        O      0.872170000000     0.339790000000     0.894930000000    -0.300452   
O        O      0.825630000000     0.231210000000     0.848260000000    -0.300452   
O        O      0.327200000000     0.653650000000     0.091990000000    -0.300452   
O        O      0.405190000000     0.549150000000     0.101740000000    -0.300452   
O        O      0.627830000000     0.839790000000     0.894930000000    -0.300452   
O        O      0.674370000000     0.731210000000     0.848260000000    -0.300452   
O        O      0.827200000000     0.846350000000     0.908010000000    -0.300452   
O        O      0.905190000000     0.950850000000     0.898260000000    -0.300452   
O        O      0.127830000000     0.660210000000     0.105070000000    -0.300452   
O        O      0.174370000000     0.768790000000     0.151740000000    -0.300452   
O        O      0.827200000000     0.153650000000     0.408010000000    -0.300452   
O        O      0.905190000000     0.049150000000     0.398260000000    -0.300452   
O        O      0.127830000000     0.339790000000     0.605070000000    -0.300452   
O        O      0.174370000000     0.231210000000     0.651740000000    -0.300452   
O        O      0.327200000000     0.346350000000     0.591990000000    -0.300452   
O        O      0.405190000000     0.450850000000     0.601740000000    -0.300452   
O        O      0.627830000000     0.160210000000     0.394930000000    -0.300452   
O        O      0.674370000000     0.268790000000     0.348260000000    -0.300452   


