data_PIXHOV_original

_audit_creation_method RASPA-1.0
_audit_creation_date 2022-1-31
_audit_author_name 'Felipe Lopes de Oliveira <felipe.lopes.oliveira@ibm.com>'

_cell_length_a    7.6513
_cell_length_b    13.9519
_cell_length_c    14.2991
_cell_angle_alpha 99.359
_cell_angle_beta  90
_cell_angle_gamma 90
_cell_volume      1506.11

_symmetry_cell_setting          triclinic
_symmetry_space_group_name_Hall 'P 1'
_symmetry_space_group_name_H-M  'P 1'
_symmetry_Int_Tables_number     1

_symmetry_equiv_pos_as_xyz 'x,y,z'

loop_
_atom_site_label
_atom_site_type_symbol
_atom_site_fract_x
_atom_site_fract_y
_atom_site_fract_z
_atom_site_charge
Zn       Zn     0.400560000000     0.250000000000     0.250000000000     0.437767   
Zn       Zn     0.599440000000     0.750000000000     0.750000000000     0.437767   
H        H      0.525600000000     0.249200000000     0.453800000000     0.0560685  
H        H      0.771200000000     0.205900000000     0.526900000000     0.0560685  
H        H      0.945200000000     0.069400000000     0.276300000000     0.0560685  
H        H      0.691500000000     0.112800000000     0.210900000000     0.0560685  
H        H      0.056800000000     0.127700000000     0.522300000000     0.0560685  
H        H      0.182400000000     0.047000000000     0.349800000000     0.0560685  
H        H      0.299700000000     0.092700000000     0.596900000000     0.0560685  
H        H      0.452400000000     0.961600000000     0.340100000000     0.0560685  
H        H      0.270900000000     0.931800000000     0.000200000000     0.0560685  
H        H      0.948600000000     0.147400000000     0.094100000000     0.0560685  
H        H      0.525600000000     0.250800000000     0.046200000000     0.0560685  
H        H      0.771200000000     0.294100000000     0.973100000000     0.0560685  
H        H      0.945200000000     0.430600000000     0.223700000000     0.0560685  
H        H      0.691500000000     0.387200000000     0.289100000000     0.0560685  
H        H      0.056800000000     0.372300000000     0.977700000000     0.0560685  
H        H      0.182400000000     0.453000000000     0.150200000000     0.0560685  
H        H      0.299700000000     0.407300000000     0.903100000000     0.0560685  
H        H      0.452400000000     0.538400000000     0.159900000000     0.0560685  
H        H      0.270900000000     0.568200000000     0.499800000000     0.0560685  
H        H      0.948600000000     0.352600000000     0.405900000000     0.0560685  
H        H      0.474400000000     0.750800000000     0.546200000000     0.0560685  
H        H      0.228800000000     0.794100000000     0.473100000000     0.0560685  
H        H      0.054800000000     0.930600000000     0.723700000000     0.0560685  
H        H      0.308500000000     0.887200000000     0.789100000000     0.0560685  
H        H      0.943200000000     0.872300000000     0.477700000000     0.0560685  
H        H      0.817600000000     0.953000000000     0.650200000000     0.0560685  
H        H      0.700300000000     0.907300000000     0.403100000000     0.0560685  
H        H      0.547600000000     0.038400000000     0.659900000000     0.0560685  
H        H      0.729100000000     0.068200000000     0.999800000000     0.0560685  
H        H      0.051400000000     0.852600000000     0.905900000000     0.0560685  
H        H      0.474400000000     0.749200000000     0.953800000000     0.0560685  
H        H      0.228800000000     0.705900000000     0.026900000000     0.0560685  
H        H      0.054800000000     0.569400000000     0.776300000000     0.0560685  
H        H      0.308500000000     0.612800000000     0.710900000000     0.0560685  
H        H      0.943200000000     0.627700000000     0.022300000000     0.0560685  
H        H      0.817600000000     0.547000000000     0.849800000000     0.0560685  
H        H      0.700300000000     0.592700000000     0.096900000000     0.0560685  
H        H      0.547600000000     0.461600000000     0.840100000000     0.0560685  
H        H      0.729100000000     0.431800000000     0.500200000000     0.0560685  
H        H      0.051400000000     0.647400000000     0.594100000000     0.0560685  
C        C      0.610500000000     0.212600000000     0.417600000000     0.0008175  
C        C      0.758900000000     0.187200000000     0.461800000000     0.0008175  
C        C      0.891200000000     0.133700000000     0.410500000000     0.0008175  
C        C      0.862300000000     0.105900000000     0.314100000000     0.0008175  
C        C      0.709100000000     0.133000000000     0.275400000000     0.0008175  
C        C      0.050700000000     0.108800000000     0.456900000000     0.0008175  
C        C      0.187300000000     0.062200000000     0.415600000000     0.0008175  
C        C      0.346700000000     0.031000000000     0.460300000000     0.0008175  
C        C      0.379400000000     0.055100000000     0.557700000000     0.0008175  
C        C      0.471100000000     0.976900000000     0.405100000000     0.0008175  
C        C      0.270400000000     0.096300000000     0.122100000000     0.0008175  
C        C      0.131200000000     0.045900000000     0.058500000000     0.0008175  
C        C      0.160600000000     0.959900000000     0.001100000000     0.0008175  
C        C      0.970800000000     0.087500000000     0.056800000000     0.0008175  
C        C      0.610500000000     0.287400000000     0.082400000000     0.0008175  
C        C      0.758900000000     0.312800000000     0.038200000000     0.0008175  
C        C      0.891200000000     0.366300000000     0.089500000000     0.0008175  
C        C      0.862300000000     0.394100000000     0.185900000000     0.0008175  
C        C      0.709100000000     0.367000000000     0.224600000000     0.0008175  
C        C      0.050700000000     0.391200000000     0.043100000000     0.0008175  
C        C      0.187300000000     0.437800000000     0.084400000000     0.0008175  
C        C      0.346700000000     0.469000000000     0.039700000000     0.0008175  
C        C      0.379400000000     0.444900000000     0.942300000000     0.0008175  
C        C      0.471100000000     0.523100000000     0.094900000000     0.0008175  
C        C      0.270400000000     0.403700000000     0.377900000000     0.0008175  
C        C      0.131200000000     0.454100000000     0.441500000000     0.0008175  
C        C      0.160600000000     0.540100000000     0.498900000000     0.0008175  
C        C      0.970800000000     0.412500000000     0.443200000000     0.0008175  
C        C      0.389500000000     0.787400000000     0.582400000000     0.0008175  
C        C      0.241100000000     0.812800000000     0.538200000000     0.0008175  
C        C      0.108800000000     0.866300000000     0.589500000000     0.0008175  
C        C      0.137700000000     0.894100000000     0.685900000000     0.0008175  
C        C      0.290900000000     0.867000000000     0.724600000000     0.0008175  
C        C      0.949300000000     0.891200000000     0.543100000000     0.0008175  
C        C      0.812700000000     0.937800000000     0.584400000000     0.0008175  
C        C      0.653300000000     0.969000000000     0.539700000000     0.0008175  
C        C      0.620600000000     0.944900000000     0.442300000000     0.0008175  
C        C      0.528900000000     0.023100000000     0.594900000000     0.0008175  
C        C      0.729600000000     0.903700000000     0.877900000000     0.0008175  
C        C      0.868800000000     0.954100000000     0.941500000000     0.0008175  
C        C      0.839400000000     0.040100000000     0.998900000000     0.0008175  
C        C      0.029200000000     0.912500000000     0.943200000000     0.0008175  
C        C      0.389500000000     0.712600000000     0.917600000000     0.0008175  
C        C      0.241100000000     0.687200000000     0.961800000000     0.0008175  
C        C      0.108800000000     0.633700000000     0.910500000000     0.0008175  
C        C      0.137700000000     0.605900000000     0.814100000000     0.0008175  
C        C      0.290900000000     0.633000000000     0.775400000000     0.0008175  
C        C      0.949300000000     0.608800000000     0.956900000000     0.0008175  
C        C      0.812700000000     0.562200000000     0.915600000000     0.0008175  
C        C      0.653300000000     0.531000000000     0.960300000000     0.0008175  
C        C      0.620600000000     0.555100000000     0.057700000000     0.0008175  
C        C      0.528900000000     0.476900000000     0.905100000000     0.0008175  
C        C      0.729600000000     0.596300000000     0.622100000000     0.0008175  
C        C      0.868800000000     0.545900000000     0.558500000000     0.0008175  
C        C      0.839400000000     0.459900000000     0.501100000000     0.0008175  
C        C      0.029200000000     0.587500000000     0.556800000000     0.0008175  
N        N      0.583700000000     0.186400000000     0.324000000000    -0.179008   
N        N      0.583700000000     0.313600000000     0.176000000000    -0.179008   
N        N      0.416300000000     0.813600000000     0.676000000000    -0.179008   
N        N      0.416300000000     0.686400000000     0.824000000000    -0.179008   
O        O      0.237900000000     0.176700000000     0.164600000000    -0.306003   
O        O      0.410600000000     0.060000000000     0.125600000000    -0.306003   
O        O      0.237900000000     0.323300000000     0.335400000000    -0.306003   
O        O      0.410600000000     0.440000000000     0.374400000000    -0.306003   
O        O      0.762100000000     0.823300000000     0.835400000000    -0.306003   
O        O      0.589400000000     0.940000000000     0.874400000000    -0.306003   
O        O      0.762100000000     0.676700000000     0.664600000000    -0.306003   
O        O      0.589400000000     0.560000000000     0.625600000000    -0.306003   


