data_POJTUE_original

_audit_creation_method RASPA-1.0
_audit_creation_date 2022-1-30
_audit_author_name 'Felipe Lopes de Oliveira <felipe.lopes.oliveira@ibm.com>'

_cell_length_a    6.8351
_cell_length_b    15.0362
_cell_length_c    19.3197
_cell_angle_alpha 90
_cell_angle_beta  96.305
_cell_angle_gamma 90
_cell_volume      1973.55

_symmetry_cell_setting          triclinic
_symmetry_space_group_name_Hall 'P 1'
_symmetry_space_group_name_H-M  'P 1'
_symmetry_Int_Tables_number     1

_symmetry_equiv_pos_as_xyz 'x,y,z'

loop_
_atom_site_label
_atom_site_type_symbol
_atom_site_fract_x
_atom_site_fract_y
_atom_site_fract_z
_atom_site_charge
Fe       Fe     0.525100000000     0.744200000000     0.505600000000     1.03085    
Fe       Fe     0.974900000000     0.244200000000     0.494400000000     1.03085    
Fe       Fe     0.474900000000     0.255800000000     0.494400000000     1.03085    
Fe       Fe     0.025100000000     0.755800000000     0.505600000000     1.03085    
Fe       Fe     0.500000000000     0.000000000000     0.000000000000     1.03085    
Fe       Fe     0.000000000000     0.500000000000     0.000000000000     1.03085    
Fe       Fe     0.500000000000     0.500000000000     0.000000000000     1.03085    
Fe       Fe     0.000000000000     0.000000000000     0.000000000000     1.03085    
H        H      0.483900000000     0.630900000000     0.172000000000     0.0548983  
H        H      0.458300000000     0.665100000000     0.289400000000     0.0548983  
H        H      0.038100000000     0.605600000000     0.337800000000     0.0548983  
H        H      0.063700000000     0.571400000000     0.220500000000     0.0548983  
H        H      0.473800000000     0.614900000000     0.669600000000     0.0548983  
H        H      0.442600000000     0.588800000000     0.787800000000     0.0548983  
H        H      0.026500000000     0.639700000000     0.836100000000     0.0548983  
H        H      0.057700000000     0.665800000000     0.717900000000     0.0548983  
H        H      0.016100000000     0.130900000000     0.828000000000     0.0548983  
H        H      0.041700000000     0.165100000000     0.710600000000     0.0548983  
H        H      0.461900000000     0.105600000000     0.662200000000     0.0548983  
H        H      0.436300000000     0.071400000000     0.779500000000     0.0548983  
H        H      0.026200000000     0.114900000000     0.330400000000     0.0548983  
H        H      0.057400000000     0.088800000000     0.212200000000     0.0548983  
H        H      0.473500000000     0.139700000000     0.163900000000     0.0548983  
H        H      0.442300000000     0.165800000000     0.282100000000     0.0548983  
H        H      0.516100000000     0.369100000000     0.828000000000     0.0548983  
H        H      0.541700000000     0.334900000000     0.710600000000     0.0548983  
H        H      0.961900000000     0.394400000000     0.662200000000     0.0548983  
H        H      0.936300000000     0.428600000000     0.779500000000     0.0548983  
H        H      0.526200000000     0.385100000000     0.330400000000     0.0548983  
H        H      0.557400000000     0.411200000000     0.212200000000     0.0548983  
H        H      0.973500000000     0.360300000000     0.163900000000     0.0548983  
H        H      0.942300000000     0.334200000000     0.282100000000     0.0548983  
H        H      0.983900000000     0.869100000000     0.172000000000     0.0548983  
H        H      0.958300000000     0.834900000000     0.289400000000     0.0548983  
H        H      0.538100000000     0.894400000000     0.337800000000     0.0548983  
H        H      0.563700000000     0.928600000000     0.220500000000     0.0548983  
H        H      0.973800000000     0.885100000000     0.669600000000     0.0548983  
H        H      0.942600000000     0.911200000000     0.787800000000     0.0548983  
H        H      0.526500000000     0.860300000000     0.836100000000     0.0548983  
H        H      0.557700000000     0.834200000000     0.717900000000     0.0548983  
C        C      0.775900000000     0.598300000000     0.186500000000     0.0675278  
C        C      0.599400000000     0.625600000000     0.206600000000     0.0675278  
C        C      0.584500000000     0.645600000000     0.275000000000     0.0675278  
C        C      0.746100000000     0.638200000000     0.323400000000     0.0675278  
C        C      0.922600000000     0.610900000000     0.303300000000     0.0675278  
C        C      0.937500000000     0.590900000000     0.234900000000     0.0675278  
C        C      0.792400000000     0.576200000000     0.111000000000     0.0675278  
C        C      0.729600000000     0.660200000000     0.398900000000     0.0675278  
C        C      0.768400000000     0.642600000000     0.683900000000     0.0675278  
C        C      0.589100000000     0.620100000000     0.704300000000     0.0675278  
C        C      0.570900000000     0.604800000000     0.773200000000     0.0675278  
C        C      0.732000000000     0.612000000000     0.821800000000     0.0675278  
C        C      0.911300000000     0.634500000000     0.801400000000     0.0675278  
C        C      0.929500000000     0.649800000000     0.732500000000     0.0675278  
C        C      0.788000000000     0.659000000000     0.609500000000     0.0675278  
C        C      0.212300000000     0.904400000000     0.896200000000     0.0675278  
C        C      0.724100000000     0.098300000000     0.813500000000     0.0675278  
C        C      0.900600000000     0.125600000000     0.793400000000     0.0675278  
C        C      0.915500000000     0.145600000000     0.725000000000     0.0675278  
C        C      0.753900000000     0.138200000000     0.676600000000     0.0675278  
C        C      0.577400000000     0.110900000000     0.696700000000     0.0675278  
C        C      0.562500000000     0.090900000000     0.765100000000     0.0675278  
C        C      0.707600000000     0.076200000000     0.889000000000     0.0675278  
C        C      0.770400000000     0.160200000000     0.601100000000     0.0675278  
C        C      0.731600000000     0.142600000000     0.316100000000     0.0675278  
C        C      0.910900000000     0.120100000000     0.295700000000     0.0675278  
C        C      0.929100000000     0.104800000000     0.226800000000     0.0675278  
C        C      0.768000000000     0.112000000000     0.178200000000     0.0675278  
C        C      0.588700000000     0.134500000000     0.198600000000     0.0675278  
C        C      0.570500000000     0.149800000000     0.267500000000     0.0675278  
C        C      0.712000000000     0.159000000000     0.390500000000     0.0675278  
C        C      0.287700000000     0.404400000000     0.103800000000     0.0675278  
C        C      0.224100000000     0.401700000000     0.813500000000     0.0675278  
C        C      0.400600000000     0.374400000000     0.793400000000     0.0675278  
C        C      0.415500000000     0.354400000000     0.725000000000     0.0675278  
C        C      0.253900000000     0.361800000000     0.676600000000     0.0675278  
C        C      0.077400000000     0.389100000000     0.696700000000     0.0675278  
C        C      0.062500000000     0.409100000000     0.765100000000     0.0675278  
C        C      0.207600000000     0.423800000000     0.889000000000     0.0675278  
C        C      0.270400000000     0.339800000000     0.601100000000     0.0675278  
C        C      0.231600000000     0.357400000000     0.316100000000     0.0675278  
C        C      0.410900000000     0.379900000000     0.295700000000     0.0675278  
C        C      0.429100000000     0.395200000000     0.226800000000     0.0675278  
C        C      0.268000000000     0.388000000000     0.178200000000     0.0675278  
C        C      0.088700000000     0.365500000000     0.198600000000     0.0675278  
C        C      0.070500000000     0.350200000000     0.267500000000     0.0675278  
C        C      0.212000000000     0.341000000000     0.390500000000     0.0675278  
C        C      0.787700000000     0.095600000000     0.103800000000     0.0675278  
C        C      0.275900000000     0.901700000000     0.186500000000     0.0675278  
C        C      0.099400000000     0.874400000000     0.206600000000     0.0675278  
C        C      0.084500000000     0.854400000000     0.275000000000     0.0675278  
C        C      0.246100000000     0.861800000000     0.323400000000     0.0675278  
C        C      0.422600000000     0.889100000000     0.303300000000     0.0675278  
C        C      0.437500000000     0.909100000000     0.234900000000     0.0675278  
C        C      0.292400000000     0.923800000000     0.111000000000     0.0675278  
C        C      0.229600000000     0.839800000000     0.398900000000     0.0675278  
C        C      0.268400000000     0.857400000000     0.683900000000     0.0675278  
C        C      0.089100000000     0.879900000000     0.704300000000     0.0675278  
C        C      0.070900000000     0.895200000000     0.773200000000     0.0675278  
C        C      0.232000000000     0.888000000000     0.821800000000     0.0675278  
C        C      0.411300000000     0.865500000000     0.801400000000     0.0675278  
C        C      0.429500000000     0.850200000000     0.732500000000     0.0675278  
C        C      0.288000000000     0.841000000000     0.609500000000     0.0675278  
C        C      0.712300000000     0.595600000000     0.896200000000     0.0675278  
O        O      0.278600000000     0.688400000000     0.505400000000    -0.358133   
O        O      0.744400000000     0.933400000000     0.999600000000    -0.358133   
O        O      0.640000000000     0.577400000000     0.067000000000    -0.358133   
O        O      0.958500000000     0.556600000000     0.091500000000    -0.358133   
O        O      0.567800000000     0.688300000000     0.417100000000    -0.358133   
O        O      0.377700000000     0.849400000000     0.444100000000    -0.358133   
O        O      0.639500000000     0.650700000000     0.564300000000    -0.358133   
O        O      0.453400000000     0.818500000000     0.590800000000    -0.358133   
O        O      0.044900000000     0.922300000000     0.915400000000    -0.358133   
O        O      0.362900000000     0.900700000000     0.940900000000    -0.358133   
O        O      0.221400000000     0.188400000000     0.494600000000    -0.358133   
O        O      0.755600000000     0.433400000000     0.000400000000    -0.358133   
O        O      0.860000000000     0.077400000000     0.933000000000    -0.358133   
O        O      0.541500000000     0.056600000000     0.908500000000    -0.358133   
O        O      0.932200000000     0.188300000000     0.582900000000    -0.358133   
O        O      0.122300000000     0.349400000000     0.555900000000    -0.358133   
O        O      0.860500000000     0.150700000000     0.435700000000    -0.358133   
O        O      0.046600000000     0.318500000000     0.409200000000    -0.358133   
O        O      0.455100000000     0.422300000000     0.084600000000    -0.358133   
O        O      0.137100000000     0.400700000000     0.059100000000    -0.358133   
O        O      0.721400000000     0.311600000000     0.494600000000    -0.358133   
O        O      0.255600000000     0.066600000000     0.000400000000    -0.358133   
O        O      0.360000000000     0.422600000000     0.933000000000    -0.358133   
O        O      0.041500000000     0.443400000000     0.908500000000    -0.358133   
O        O      0.432200000000     0.311700000000     0.582900000000    -0.358133   
O        O      0.622300000000     0.150600000000     0.555900000000    -0.358133   
O        O      0.360500000000     0.349300000000     0.435700000000    -0.358133   
O        O      0.546600000000     0.181500000000     0.409200000000    -0.358133   
O        O      0.955100000000     0.077700000000     0.084600000000    -0.358133   
O        O      0.637100000000     0.099300000000     0.059100000000    -0.358133   
O        O      0.778600000000     0.811600000000     0.505400000000    -0.358133   
O        O      0.244400000000     0.566600000000     0.999600000000    -0.358133   
O        O      0.140000000000     0.922600000000     0.067000000000    -0.358133   
O        O      0.458500000000     0.943400000000     0.091500000000    -0.358133   
O        O      0.067800000000     0.811700000000     0.417100000000    -0.358133   
O        O      0.877700000000     0.650600000000     0.444100000000    -0.358133   
O        O      0.139500000000     0.849300000000     0.564300000000    -0.358133   
O        O      0.953400000000     0.681500000000     0.590800000000    -0.358133   
O        O      0.544900000000     0.577700000000     0.915400000000    -0.358133   
O        O      0.862900000000     0.599300000000     0.940900000000    -0.358133   


