data_PORVUO_original

_audit_creation_method RASPA-1.0
_audit_creation_date 2022-1-30
_audit_author_name 'Felipe Lopes de Oliveira <felipe.lopes.oliveira@ibm.com>'

_cell_length_a    6.2226
_cell_length_b    14.702
_cell_length_c    17.5045
_cell_angle_alpha 102.233
_cell_angle_beta  90
_cell_angle_gamma 102.217
_cell_volume      1527.9

_symmetry_cell_setting          triclinic
_symmetry_space_group_name_Hall 'P 1'
_symmetry_space_group_name_H-M  'P 1'
_symmetry_Int_Tables_number     1

_symmetry_equiv_pos_as_xyz 'x,y,z'

loop_
_atom_site_label
_atom_site_type_symbol
_atom_site_fract_x
_atom_site_fract_y
_atom_site_fract_z
_atom_site_charge
Zn       Zn     0.436480000000     0.000000000000     0.750000000000     0.423538   
Zn       Zn     0.563520000000     0.000000000000     0.250000000000     0.423538   
H        H      0.831100000000     0.809400000000     0.638000000000     0.0547303  
H        H      0.569200000000     0.683000000000     0.568800000000     0.0547303  
H        H      0.970600000000     0.508000000000     0.584800000000     0.0547303  
H        H      0.229900000000     0.632400000000     0.655000000000     0.0547303  
H        H      0.617200000000     0.439000000000     0.518900000000     0.0547303  
H        H      0.790600000000     0.901600000000     0.785000000000     0.0547303  
H        H      0.030700000000     0.902200000000     0.884000000000     0.0547303  
H        H      0.765900000000     0.100800000000     0.021700000000     0.0547303  
H        H      0.518100000000     0.083800000000     0.920300000000     0.0547303  
H        H      0.021700000000     0.190600000000     0.862000000000     0.0547303  
H        H      0.886200000000     0.317000000000     0.931200000000     0.0547303  
H        H      0.462600000000     0.492000000000     0.915200000000     0.0547303  
H        H      0.597500000000     0.367600000000     0.845000000000     0.0547303  
H        H      0.178200000000     0.561000000000     0.981100000000     0.0547303  
H        H      0.889000000000     0.098400000000     0.715000000000     0.0547303  
H        H      0.128500000000     0.097800000000     0.616000000000     0.0547303  
H        H      0.665100000000     0.899200000000     0.478300000000     0.0547303  
H        H      0.434300000000     0.916200000000     0.579700000000     0.0547303  
H        H      0.168900000000     0.190600000000     0.362000000000     0.0547303  
H        H      0.430800000000     0.317000000000     0.431200000000     0.0547303  
H        H      0.029400000000     0.492000000000     0.415200000000     0.0547303  
H        H      0.770100000000     0.367600000000     0.345000000000     0.0547303  
H        H      0.382800000000     0.561000000000     0.481100000000     0.0547303  
H        H      0.209400000000     0.098400000000     0.215000000000     0.0547303  
H        H      0.969300000000     0.097800000000     0.116000000000     0.0547303  
H        H      0.234100000000     0.899200000000     0.978300000000     0.0547303  
H        H      0.481900000000     0.916200000000     0.079700000000     0.0547303  
H        H      0.978300000000     0.809400000000     0.138000000000     0.0547303  
H        H      0.113800000000     0.683000000000     0.068800000000     0.0547303  
H        H      0.537400000000     0.508000000000     0.084800000000     0.0547303  
H        H      0.402500000000     0.632400000000     0.155000000000     0.0547303  
H        H      0.821800000000     0.439000000000     0.018900000000     0.0547303  
H        H      0.111000000000     0.901600000000     0.285000000000     0.0547303  
H        H      0.871500000000     0.902200000000     0.384000000000     0.0547303  
H        H      0.334900000000     0.100800000000     0.521700000000     0.0547303  
H        H      0.565700000000     0.083800000000     0.420300000000     0.0547303  
C        C      0.229700000000     0.817600000000     0.696300000000     0.00228191 
C        C      0.056700000000     0.734600000000     0.653700000000     0.00228191 
C        C      0.859500000000     0.748600000000     0.627400000000     0.00228191 
C        C      0.702400000000     0.672600000000     0.585200000000     0.00228191 
C        C      0.743300000000     0.581800000000     0.567400000000     0.00228191 
C        C      0.942400000000     0.569000000000     0.595200000000     0.00228191 
C        C      0.098400000000     0.643200000000     0.637500000000     0.00228191 
C        C      0.587800000000     0.498800000000     0.520100000000     0.00228191 
C        C      0.785300000000     0.941800000000     0.833500000000     0.00228191 
C        C      0.929700000000     0.941200000000     0.893000000000     0.00228191 
C        C      0.924300000000     0.000000000000     0.967300000000     0.00228191 
C        C      0.771800000000     0.057400000000     0.975000000000     0.00228191 
C        C      0.628600000000     0.049400000000     0.912100000000     0.00228191 
C        C      0.412100000000     0.182400000000     0.803700000000     0.00228191 
C        C      0.322100000000     0.265400000000     0.846300000000     0.00228191 
C        C      0.110900000000     0.251400000000     0.872600000000     0.00228191 
C        C      0.029800000000     0.327400000000     0.914800000000     0.00228191 
C        C      0.161500000000     0.418200000000     0.932600000000     0.00228191 
C        C      0.373400000000     0.431000000000     0.904800000000     0.00228191 
C        C      0.455200000000     0.356800000000     0.862500000000     0.00228191 
C        C      0.089000000000     0.501200000000     0.979900000000     0.00228191 
C        C      0.843500000000     0.058200000000     0.666500000000     0.00228191 
C        C      0.988500000000     0.058800000000     0.607000000000     0.00228191 
C        C      0.924300000000     0.000000000000     0.532700000000     0.00228191 
C        C      0.714400000000     0.942600000000     0.525000000000     0.00228191 
C        C      0.579200000000     0.950600000000     0.587900000000     0.00228191 
C        C      0.770300000000     0.182400000000     0.303700000000     0.00228191 
C        C      0.943300000000     0.265400000000     0.346300000000     0.00228191 
C        C      0.140500000000     0.251400000000     0.372600000000     0.00228191 
C        C      0.297600000000     0.327400000000     0.414800000000     0.00228191 
C        C      0.256700000000     0.418200000000     0.432600000000     0.00228191 
C        C      0.057600000000     0.431000000000     0.404800000000     0.00228191 
C        C      0.901600000000     0.356800000000     0.362500000000     0.00228191 
C        C      0.412200000000     0.501200000000     0.479900000000     0.00228191 
C        C      0.214700000000     0.058200000000     0.166500000000     0.00228191 
C        C      0.070300000000     0.058800000000     0.107000000000     0.00228191 
C        C      0.075700000000     0.000000000000     0.032700000000     0.00228191 
C        C      0.228200000000     0.942600000000     0.025000000000     0.00228191 
C        C      0.371400000000     0.950600000000     0.087900000000     0.00228191 
C        C      0.587900000000     0.817600000000     0.196300000000     0.00228191 
C        C      0.677900000000     0.734600000000     0.153700000000     0.00228191 
C        C      0.889100000000     0.748600000000     0.127400000000     0.00228191 
C        C      0.970200000000     0.672600000000     0.085200000000     0.00228191 
C        C      0.838500000000     0.581800000000     0.067400000000     0.00228191 
C        C      0.626600000000     0.569000000000     0.095200000000     0.00228191 
C        C      0.544800000000     0.643200000000     0.137500000000     0.00228191 
C        C      0.911000000000     0.498800000000     0.020100000000     0.00228191 
C        C      0.156500000000     0.941800000000     0.333500000000     0.00228191 
C        C      0.011500000000     0.941200000000     0.393000000000     0.00228191 
C        C      0.075700000000     0.000000000000     0.467300000000     0.00228191 
C        C      0.285600000000     0.057400000000     0.475000000000     0.00228191 
C        C      0.420800000000     0.049400000000     0.412100000000     0.00228191 
N        N      0.636500000000     0.997400000000     0.842000000000    -0.166173   
N        N      0.639100000000     0.002600000000     0.658000000000    -0.166173   
N        N      0.363500000000     0.002600000000     0.158000000000    -0.166173   
N        N      0.360900000000     0.997400000000     0.342000000000    -0.166173   
O        O      0.180170000000     0.898340000000     0.708900000000    -0.283917   
O        O      0.412400000000     0.806000000000     0.713200000000    -0.283917   
O        O      0.281830000000     0.101660000000     0.791100000000    -0.283917   
O        O      0.606400000000     0.194000000000     0.786800000000    -0.283917   
O        O      0.819830000000     0.101660000000     0.291100000000    -0.283917   
O        O      0.587600000000     0.194000000000     0.286800000000    -0.283917   
O        O      0.718170000000     0.898340000000     0.208900000000    -0.283917   
O        O      0.393600000000     0.806000000000     0.213200000000    -0.283917   


