data_PUQXUV_original

_audit_creation_method RASPA-1.0
_audit_creation_date 2022-1-29
_audit_author_name 'Felipe Lopes de Oliveira <felipe.lopes.oliveira@ibm.com>'

_cell_length_a    7.72
_cell_length_b    21.25
_cell_length_c    21.25
_cell_angle_alpha 120
_cell_angle_beta  90
_cell_angle_gamma 90
_cell_volume      3019.02

_symmetry_cell_setting          triclinic
_symmetry_space_group_name_Hall 'P 1'
_symmetry_space_group_name_H-M  'P 1'
_symmetry_Int_Tables_number     1

_symmetry_equiv_pos_as_xyz 'x,y,z'

loop_
_atom_site_label
_atom_site_type_symbol
_atom_site_fract_x
_atom_site_fract_y
_atom_site_fract_z
_atom_site_charge
Zn       Zn     0.833330000000     0.598060000000     0.299030000000     0.52125    
Zn       Zn     0.166670000000     0.700970000000     0.401940000000     0.52125    
Zn       Zn     0.500000000000     0.700970000000     0.299030000000     0.52125    
Zn       Zn     0.833330000000     0.401940000000     0.700970000000     0.52125    
Zn       Zn     0.166670000000     0.299030000000     0.598060000000     0.52125    
Zn       Zn     0.500000000000     0.299030000000     0.700970000000     0.52125    
H        H      0.724400000000     0.746400000000     0.154300000000     0.127279   
H        H      0.847100000000     0.764000000000     0.065000000000     0.127279   
H        H      0.140800000000     0.637600000000     0.156800000000     0.127279   
H        H      0.267400000000     0.656900000000     0.069600000000     0.127279   
H        H      0.057730000000     0.407900000000     0.253600000000     0.127279   
H        H      0.180430000000     0.301000000000     0.236000000000     0.127279   
H        H      0.474130000000     0.519200000000     0.362400000000     0.127279   
H        H      0.600730000000     0.412700000000     0.343100000000     0.127279   
H        H      0.391070000000     0.845700000000     0.592100000000     0.127279   
H        H      0.513770000000     0.935000000000     0.699000000000     0.127279   
H        H      0.807470000000     0.843200000000     0.480800000000     0.127279   
H        H      0.934070000000     0.930400000000     0.587300000000     0.127279   
H        H      0.724400000000     0.253600000000     0.845700000000     0.127279   
H        H      0.847100000000     0.236000000000     0.935000000000     0.127279   
H        H      0.140800000000     0.362400000000     0.843200000000     0.127279   
H        H      0.267400000000     0.343100000000     0.930400000000     0.127279   
H        H      0.057730000000     0.592100000000     0.746400000000     0.127279   
H        H      0.180430000000     0.699000000000     0.764000000000     0.127279   
H        H      0.474130000000     0.480800000000     0.637600000000     0.127279   
H        H      0.600730000000     0.587300000000     0.656900000000     0.127279   
H        H      0.391070000000     0.154300000000     0.407900000000     0.127279   
H        H      0.513770000000     0.065000000000     0.301000000000     0.127279   
H        H      0.807470000000     0.156800000000     0.519200000000     0.127279   
H        H      0.934070000000     0.069600000000     0.412700000000     0.127279   
H        H      0.608930000000     0.592100000000     0.845700000000     0.127279   
H        H      0.486230000000     0.699000000000     0.935000000000     0.127279   
H        H      0.192530000000     0.480800000000     0.843200000000     0.127279   
H        H      0.065930000000     0.587300000000     0.930400000000     0.127279   
H        H      0.275600000000     0.154300000000     0.746400000000     0.127279   
H        H      0.152900000000     0.065000000000     0.764000000000     0.127279   
H        H      0.859200000000     0.156800000000     0.637600000000     0.127279   
H        H      0.732600000000     0.069600000000     0.656900000000     0.127279   
H        H      0.942270000000     0.253600000000     0.407900000000     0.127279   
H        H      0.819570000000     0.236000000000     0.301000000000     0.127279   
H        H      0.525870000000     0.362400000000     0.519200000000     0.127279   
H        H      0.399270000000     0.343100000000     0.412700000000     0.127279   
H        H      0.608930000000     0.407900000000     0.154300000000     0.127279   
H        H      0.486230000000     0.301000000000     0.065000000000     0.127279   
H        H      0.192530000000     0.519200000000     0.156800000000     0.127279   
H        H      0.065930000000     0.412700000000     0.069600000000     0.127279   
H        H      0.275600000000     0.845700000000     0.253600000000     0.127279   
H        H      0.152900000000     0.935000000000     0.236000000000     0.127279   
H        H      0.859200000000     0.843200000000     0.362400000000     0.127279   
H        H      0.732600000000     0.930400000000     0.343100000000     0.127279   
H        H      0.942270000000     0.746400000000     0.592100000000     0.127279   
H        H      0.819570000000     0.764000000000     0.699000000000     0.127279   
H        H      0.525870000000     0.637600000000     0.480800000000     0.127279   
H        H      0.399270000000     0.656900000000     0.587300000000     0.127279   
C        C      0.828300000000     0.677000000000     0.219600000000     0.130928   
C        C      0.915400000000     0.689300000000     0.162800000000     0.130928   
C        C      0.833500000000     0.727300000000     0.136500000000     0.130928   
C        C      0.907700000000     0.738800000000     0.083300000000     0.130928   
C        C      0.081300000000     0.662900000000     0.138300000000     0.130928   
C        C      0.156600000000     0.674800000000     0.086000000000     0.130928   
C        C      0.073800000000     0.712000000000     0.057300000000     0.130928   
C        C      0.041100000000     0.744700000000     0.957200000000     0.130928   
C        C      0.161630000000     0.542600000000     0.323000000000     0.130928   
C        C      0.248730000000     0.473500000000     0.310700000000     0.130928   
C        C      0.166830000000     0.409200000000     0.272700000000     0.130928   
C        C      0.241030000000     0.344500000000     0.261200000000     0.130928   
C        C      0.414630000000     0.475400000000     0.337100000000     0.130928   
C        C      0.489930000000     0.411200000000     0.325200000000     0.130928   
C        C      0.407130000000     0.345300000000     0.288000000000     0.130928   
C        C      0.374430000000     0.212500000000     0.255300000000     0.130928   
C        C      0.494970000000     0.780400000000     0.457400000000     0.130928   
C        C      0.582070000000     0.837200000000     0.526500000000     0.130928   
C        C      0.500170000000     0.863500000000     0.590800000000     0.130928   
C        C      0.574370000000     0.916700000000     0.655500000000     0.130928   
C        C      0.747970000000     0.861700000000     0.524600000000     0.130928   
C        C      0.823270000000     0.914000000000     0.588800000000     0.130928   
C        C      0.740470000000     0.942700000000     0.654700000000     0.130928   
C        C      0.707770000000     0.042800000000     0.787500000000     0.130928   
C        C      0.828300000000     0.323000000000     0.780400000000     0.130928   
C        C      0.915400000000     0.310700000000     0.837200000000     0.130928   
C        C      0.833500000000     0.272700000000     0.863500000000     0.130928   
C        C      0.907700000000     0.261200000000     0.916700000000     0.130928   
C        C      0.081300000000     0.337100000000     0.861700000000     0.130928   
C        C      0.156600000000     0.325200000000     0.914000000000     0.130928   
C        C      0.073800000000     0.288000000000     0.942700000000     0.130928   
C        C      0.041100000000     0.255300000000     0.042800000000     0.130928   
C        C      0.161630000000     0.457400000000     0.677000000000     0.130928   
C        C      0.248730000000     0.526500000000     0.689300000000     0.130928   
C        C      0.166830000000     0.590800000000     0.727300000000     0.130928   
C        C      0.241030000000     0.655500000000     0.738800000000     0.130928   
C        C      0.414630000000     0.524600000000     0.662900000000     0.130928   
C        C      0.489930000000     0.588800000000     0.674800000000     0.130928   
C        C      0.407130000000     0.654700000000     0.712000000000     0.130928   
C        C      0.374430000000     0.787500000000     0.744700000000     0.130928   
C        C      0.494970000000     0.219600000000     0.542600000000     0.130928   
C        C      0.582070000000     0.162800000000     0.473500000000     0.130928   
C        C      0.500170000000     0.136500000000     0.409200000000     0.130928   
C        C      0.574370000000     0.083300000000     0.344500000000     0.130928   
C        C      0.747970000000     0.138300000000     0.475400000000     0.130928   
C        C      0.823270000000     0.086000000000     0.411200000000     0.130928   
C        C      0.740470000000     0.057300000000     0.345300000000     0.130928   
C        C      0.707770000000     0.957200000000     0.212500000000     0.130928   
C        C      0.505030000000     0.457400000000     0.780400000000     0.130928   
C        C      0.417930000000     0.526500000000     0.837200000000     0.130928   
C        C      0.499830000000     0.590800000000     0.863500000000     0.130928   
C        C      0.425630000000     0.655500000000     0.916700000000     0.130928   
C        C      0.252030000000     0.524600000000     0.861700000000     0.130928   
C        C      0.176730000000     0.588800000000     0.914000000000     0.130928   
C        C      0.259530000000     0.654700000000     0.942700000000     0.130928   
C        C      0.292230000000     0.787500000000     0.042800000000     0.130928   
C        C      0.171700000000     0.219600000000     0.677000000000     0.130928   
C        C      0.084600000000     0.162800000000     0.689300000000     0.130928   
C        C      0.166500000000     0.136500000000     0.727300000000     0.130928   
C        C      0.092300000000     0.083300000000     0.738800000000     0.130928   
C        C      0.918700000000     0.138300000000     0.662900000000     0.130928   
C        C      0.843400000000     0.086000000000     0.674800000000     0.130928   
C        C      0.926200000000     0.057300000000     0.712000000000     0.130928   
C        C      0.958900000000     0.957200000000     0.744700000000     0.130928   
C        C      0.838370000000     0.323000000000     0.542600000000     0.130928   
C        C      0.751270000000     0.310700000000     0.473500000000     0.130928   
C        C      0.833170000000     0.272700000000     0.409200000000     0.130928   
C        C      0.758970000000     0.261200000000     0.344500000000     0.130928   
C        C      0.585370000000     0.337100000000     0.475400000000     0.130928   
C        C      0.510070000000     0.325200000000     0.411200000000     0.130928   
C        C      0.592870000000     0.288000000000     0.345300000000     0.130928   
C        C      0.625570000000     0.255300000000     0.212500000000     0.130928   
C        C      0.505030000000     0.542600000000     0.219600000000     0.130928   
C        C      0.417930000000     0.473500000000     0.162800000000     0.130928   
C        C      0.499830000000     0.409200000000     0.136500000000     0.130928   
C        C      0.425630000000     0.344500000000     0.083300000000     0.130928   
C        C      0.252030000000     0.475400000000     0.138300000000     0.130928   
C        C      0.176730000000     0.411200000000     0.086000000000     0.130928   
C        C      0.259530000000     0.345300000000     0.057300000000     0.130928   
C        C      0.292230000000     0.212500000000     0.957200000000     0.130928   
C        C      0.171700000000     0.780400000000     0.323000000000     0.130928   
C        C      0.084600000000     0.837200000000     0.310700000000     0.130928   
C        C      0.166500000000     0.863500000000     0.272700000000     0.130928   
C        C      0.092300000000     0.916700000000     0.261200000000     0.130928   
C        C      0.918700000000     0.861700000000     0.337100000000     0.130928   
C        C      0.843400000000     0.914000000000     0.325200000000     0.130928   
C        C      0.926200000000     0.942700000000     0.288000000000     0.130928   
C        C      0.958900000000     0.042800000000     0.255300000000     0.130928   
C        C      0.838370000000     0.677000000000     0.457400000000     0.130928   
C        C      0.751270000000     0.689300000000     0.526500000000     0.130928   
C        C      0.833170000000     0.727300000000     0.590800000000     0.130928   
C        C      0.758970000000     0.738800000000     0.655500000000     0.130928   
C        C      0.585370000000     0.662900000000     0.524600000000     0.130928   
C        C      0.510070000000     0.674800000000     0.588800000000     0.130928   
C        C      0.592870000000     0.712000000000     0.654700000000     0.130928   
C        C      0.625570000000     0.744700000000     0.787500000000     0.130928   
C        C      0.166670000000     0.723100000000     0.000000000000     0.130928   
C        C      0.500000000000     0.276900000000     0.276900000000     0.130928   
C        C      0.833330000000     0.000000000000     0.723100000000     0.130928   
C        C      0.166670000000     0.276900000000     0.000000000000     0.130928   
C        C      0.500000000000     0.723100000000     0.723100000000     0.130928   
C        C      0.833330000000     0.000000000000     0.276900000000     0.130928   
O        O      0.907300000000     0.637600000000     0.238900000000    -0.32088    
O        O      0.685700000000     0.706600000000     0.242200000000    -0.32088    
O        O      0.240630000000     0.601300000000     0.362400000000    -0.32088    
O        O      0.019030000000     0.535600000000     0.293400000000    -0.32088    
O        O      0.573970000000     0.761100000000     0.398700000000    -0.32088    
O        O      0.352370000000     0.757800000000     0.464400000000    -0.32088    
O        O      0.907300000000     0.362400000000     0.761100000000    -0.32088    
O        O      0.685700000000     0.293400000000     0.757800000000    -0.32088    
O        O      0.240630000000     0.398700000000     0.637600000000    -0.32088    
O        O      0.019030000000     0.464400000000     0.706600000000    -0.32088    
O        O      0.573970000000     0.238900000000     0.601300000000    -0.32088    
O        O      0.352370000000     0.242200000000     0.535600000000    -0.32088    
O        O      0.426030000000     0.398700000000     0.761100000000    -0.32088    
O        O      0.647630000000     0.464400000000     0.757800000000    -0.32088    
O        O      0.092700000000     0.238900000000     0.637600000000    -0.32088    
O        O      0.314300000000     0.242200000000     0.706600000000    -0.32088    
O        O      0.759370000000     0.362400000000     0.601300000000    -0.32088    
O        O      0.980970000000     0.293400000000     0.535600000000    -0.32088    
O        O      0.426030000000     0.601300000000     0.238900000000    -0.32088    
O        O      0.647630000000     0.535600000000     0.242200000000    -0.32088    
O        O      0.092700000000     0.761100000000     0.362400000000    -0.32088    
O        O      0.314300000000     0.757800000000     0.293400000000    -0.32088    
O        O      0.759370000000     0.637600000000     0.398700000000    -0.32088    
O        O      0.980970000000     0.706600000000     0.464400000000    -0.32088    
F        F      0.122500000000     0.746500000000     0.902400000000    -0.413624   
F        F      0.912100000000     0.697700000000     0.928500000000    -0.413624   
F        F      0.969700000000     0.810100000000     0.997100000000    -0.413624   
F        F      0.455830000000     0.155900000000     0.253500000000    -0.413624   
F        F      0.245430000000     0.230800000000     0.302300000000    -0.413624   
F        F      0.303030000000     0.187000000000     0.189900000000    -0.413624   
F        F      0.789170000000     0.097600000000     0.844100000000    -0.413624   
F        F      0.578770000000     0.071500000000     0.769200000000    -0.413624   
F        F      0.636370000000     0.002900000000     0.813000000000    -0.413624   
F        F      0.122500000000     0.253500000000     0.097600000000    -0.413624   
F        F      0.912100000000     0.302300000000     0.071500000000    -0.413624   
F        F      0.969700000000     0.189900000000     0.002900000000    -0.413624   
F        F      0.455830000000     0.844100000000     0.746500000000    -0.413624   
F        F      0.245430000000     0.769200000000     0.697700000000    -0.413624   
F        F      0.303030000000     0.813000000000     0.810100000000    -0.413624   
F        F      0.789170000000     0.902400000000     0.155900000000    -0.413624   
F        F      0.578770000000     0.928500000000     0.230800000000    -0.413624   
F        F      0.636370000000     0.997100000000     0.187000000000    -0.413624   
F        F      0.210830000000     0.844100000000     0.097600000000    -0.413624   
F        F      0.421230000000     0.769200000000     0.071500000000    -0.413624   
F        F      0.363630000000     0.813000000000     0.002900000000    -0.413624   
F        F      0.877500000000     0.902400000000     0.746500000000    -0.413624   
F        F      0.087900000000     0.928500000000     0.697700000000    -0.413624   
F        F      0.030300000000     0.997100000000     0.810100000000    -0.413624   
F        F      0.544170000000     0.253500000000     0.155900000000    -0.413624   
F        F      0.754570000000     0.302300000000     0.230800000000    -0.413624   
F        F      0.696970000000     0.189900000000     0.187000000000    -0.413624   
F        F      0.210830000000     0.155900000000     0.902400000000    -0.413624   
F        F      0.421230000000     0.230800000000     0.928500000000    -0.413624   
F        F      0.363630000000     0.187000000000     0.997100000000    -0.413624   
F        F      0.877500000000     0.097600000000     0.253500000000    -0.413624   
F        F      0.087900000000     0.071500000000     0.302300000000    -0.413624   
F        F      0.030300000000     0.002900000000     0.189900000000    -0.413624   
F        F      0.544170000000     0.746500000000     0.844100000000    -0.413624   
F        F      0.754570000000     0.697700000000     0.769200000000    -0.413624   
F        F      0.696970000000     0.810100000000     0.813000000000    -0.413624   


