data_PUQYAC_original

_audit_creation_method RASPA-1.0
_audit_creation_date 2022-1-29
_audit_author_name 'Felipe Lopes de Oliveira <felipe.lopes.oliveira@ibm.com>'

_cell_length_a    7.73
_cell_length_b    21.26
_cell_length_c    21.26
_cell_angle_alpha 120
_cell_angle_beta  90
_cell_angle_gamma 90
_cell_volume      3025.78

_symmetry_cell_setting          triclinic
_symmetry_space_group_name_Hall 'P 1'
_symmetry_space_group_name_H-M  'P 1'
_symmetry_Int_Tables_number     1

_symmetry_equiv_pos_as_xyz 'x,y,z'

loop_
_atom_site_label
_atom_site_type_symbol
_atom_site_fract_x
_atom_site_fract_y
_atom_site_fract_z
_atom_site_charge
Zn       Zn     0.000000000000     0.299090000000     0.700920000000     0.518035   
Zn       Zn     0.666670000000     0.401830000000     0.700910000000     0.518035   
Zn       Zn     0.333330000000     0.299090000000     0.598180000000     0.518035   
Zn       Zn     0.000000000000     0.700910000000     0.299080000000     0.518035   
Zn       Zn     0.666670000000     0.598170000000     0.299080000000     0.518035   
Zn       Zn     0.333330000000     0.700920000000     0.401830000000     0.518035   
H        H      0.109600000000     0.153400000000     0.407600000000     0.125844   
H        H      0.565300000000     0.070500000000     0.413200000000     0.125844   
H        H      0.692500000000     0.157100000000     0.519300000000     0.125844   
H        H      0.989200000000     0.064800000000     0.301500000000     0.125844   
H        H      0.776270000000     0.254200000000     0.846600000000     0.125844   
H        H      0.231970000000     0.342700000000     0.929500000000     0.125844   
H        H      0.359170000000     0.362200000000     0.842900000000     0.125844   
H        H      0.655870000000     0.236700000000     0.935200000000     0.125844   
H        H      0.442930000000     0.592400000000     0.745800000000     0.125844   
H        H      0.898630000000     0.586800000000     0.657300000000     0.125844   
H        H      0.025830000000     0.480700000000     0.637800000000     0.125844   
H        H      0.322530000000     0.698500000000     0.763300000000     0.125844   
H        H      0.109600000000     0.846600000000     0.592400000000     0.125844   
H        H      0.565300000000     0.929500000000     0.586800000000     0.125844   
H        H      0.692500000000     0.842900000000     0.480700000000     0.125844   
H        H      0.989200000000     0.935200000000     0.698500000000     0.125844   
H        H      0.776270000000     0.745800000000     0.153400000000     0.125844   
H        H      0.231970000000     0.657300000000     0.070500000000     0.125844   
H        H      0.359170000000     0.637800000000     0.157100000000     0.125844   
H        H      0.655870000000     0.763300000000     0.064800000000     0.125844   
H        H      0.442930000000     0.407600000000     0.254200000000     0.125844   
H        H      0.898630000000     0.413200000000     0.342700000000     0.125844   
H        H      0.025830000000     0.519300000000     0.362200000000     0.125844   
H        H      0.322530000000     0.301500000000     0.236700000000     0.125844   
H        H      0.557070000000     0.745800000000     0.592400000000     0.125844   
H        H      0.101370000000     0.657300000000     0.586800000000     0.125844   
H        H      0.974170000000     0.637800000000     0.480700000000     0.125844   
H        H      0.677470000000     0.763300000000     0.698500000000     0.125844   
H        H      0.890400000000     0.407600000000     0.153400000000     0.125844   
H        H      0.434700000000     0.413200000000     0.070500000000     0.125844   
H        H      0.307500000000     0.519300000000     0.157100000000     0.125844   
H        H      0.010800000000     0.301500000000     0.064800000000     0.125844   
H        H      0.223730000000     0.846600000000     0.254200000000     0.125844   
H        H      0.768030000000     0.929500000000     0.342700000000     0.125844   
H        H      0.640830000000     0.842900000000     0.362200000000     0.125844   
H        H      0.344130000000     0.935200000000     0.236700000000     0.125844   
H        H      0.557070000000     0.254200000000     0.407600000000     0.125844   
H        H      0.101370000000     0.342700000000     0.413200000000     0.125844   
H        H      0.974170000000     0.362200000000     0.519300000000     0.125844   
H        H      0.677470000000     0.236700000000     0.301500000000     0.125844   
H        H      0.890400000000     0.592400000000     0.846600000000     0.125844   
H        H      0.434700000000     0.586800000000     0.929500000000     0.125844   
H        H      0.307500000000     0.480700000000     0.842900000000     0.125844   
H        H      0.010800000000     0.698500000000     0.935200000000     0.125844   
H        H      0.223730000000     0.153400000000     0.745800000000     0.125844   
H        H      0.768030000000     0.070500000000     0.657300000000     0.125844   
H        H      0.640830000000     0.157100000000     0.637800000000     0.125844   
H        H      0.344130000000     0.064800000000     0.763300000000     0.125844   
C        C      0.003800000000     0.218900000000     0.541300000000     0.133093   
C        C      0.000200000000     0.135800000000     0.408800000000     0.133093   
C        C      0.676400000000     0.086300000000     0.411500000000     0.133093   
C        C      0.752100000000     0.138700000000     0.475700000000     0.133093   
C        C      0.917400000000     0.163500000000     0.474300000000     0.133093   
C        C      0.928100000000     0.083100000000     0.344900000000     0.133093   
C        C      0.759200000000     0.056900000000     0.345600000000     0.133093   
C        C      0.540900000000     0.042400000000     0.255000000000     0.133093   
C        C      0.670470000000     0.322400000000     0.781100000000     0.133093   
C        C      0.666870000000     0.273000000000     0.864200000000     0.133093   
C        C      0.343070000000     0.325200000000     0.913700000000     0.133093   
C        C      0.418770000000     0.337000000000     0.861300000000     0.133093   
C        C      0.584070000000     0.310800000000     0.836500000000     0.133093   
C        C      0.594770000000     0.261800000000     0.916900000000     0.133093   
C        C      0.425870000000     0.288700000000     0.943100000000     0.133093   
C        C      0.207570000000     0.212600000000     0.957600000000     0.133093   
C        C      0.337130000000     0.458700000000     0.677600000000     0.133093   
C        C      0.333530000000     0.591200000000     0.727000000000     0.133093   
C        C      0.009730000000     0.588500000000     0.674800000000     0.133093   
C        C      0.085430000000     0.524300000000     0.663000000000     0.133093   
C        C      0.250730000000     0.525700000000     0.689200000000     0.133093   
C        C      0.261430000000     0.655100000000     0.738200000000     0.133093   
C        C      0.092530000000     0.654400000000     0.711300000000     0.133093   
C        C      0.874230000000     0.745000000000     0.787400000000     0.133093   
C        C      0.003800000000     0.781100000000     0.458700000000     0.133093   
C        C      0.000200000000     0.864200000000     0.591200000000     0.133093   
C        C      0.676400000000     0.913700000000     0.588500000000     0.133093   
C        C      0.752100000000     0.861300000000     0.524300000000     0.133093   
C        C      0.917400000000     0.836500000000     0.525700000000     0.133093   
C        C      0.928100000000     0.916900000000     0.655100000000     0.133093   
C        C      0.759200000000     0.943100000000     0.654400000000     0.133093   
C        C      0.540900000000     0.957600000000     0.745000000000     0.133093   
C        C      0.670470000000     0.677600000000     0.218900000000     0.133093   
C        C      0.666870000000     0.727000000000     0.135800000000     0.133093   
C        C      0.343070000000     0.674800000000     0.086300000000     0.133093   
C        C      0.418770000000     0.663000000000     0.138700000000     0.133093   
C        C      0.584070000000     0.689200000000     0.163500000000     0.133093   
C        C      0.594770000000     0.738200000000     0.083100000000     0.133093   
C        C      0.425870000000     0.711300000000     0.056900000000     0.133093   
C        C      0.207570000000     0.787400000000     0.042400000000     0.133093   
C        C      0.337130000000     0.541300000000     0.322400000000     0.133093   
C        C      0.333530000000     0.408800000000     0.273000000000     0.133093   
C        C      0.009730000000     0.411500000000     0.325200000000     0.133093   
C        C      0.085430000000     0.475700000000     0.337000000000     0.133093   
C        C      0.250730000000     0.474300000000     0.310800000000     0.133093   
C        C      0.261430000000     0.344900000000     0.261800000000     0.133093   
C        C      0.092530000000     0.345600000000     0.288700000000     0.133093   
C        C      0.874230000000     0.255000000000     0.212600000000     0.133093   
C        C      0.662870000000     0.677600000000     0.458700000000     0.133093   
C        C      0.666470000000     0.727000000000     0.591200000000     0.133093   
C        C      0.990270000000     0.674800000000     0.588500000000     0.133093   
C        C      0.914570000000     0.663000000000     0.524300000000     0.133093   
C        C      0.749270000000     0.689200000000     0.525700000000     0.133093   
C        C      0.738570000000     0.738200000000     0.655100000000     0.133093   
C        C      0.907470000000     0.711300000000     0.654400000000     0.133093   
C        C      0.125770000000     0.787400000000     0.745000000000     0.133093   
C        C      0.996200000000     0.541300000000     0.218900000000     0.133093   
C        C      0.999800000000     0.408800000000     0.135800000000     0.133093   
C        C      0.323600000000     0.411500000000     0.086300000000     0.133093   
C        C      0.247900000000     0.475700000000     0.138700000000     0.133093   
C        C      0.082600000000     0.474300000000     0.163500000000     0.133093   
C        C      0.071900000000     0.344900000000     0.083100000000     0.133093   
C        C      0.240800000000     0.345600000000     0.056900000000     0.133093   
C        C      0.459100000000     0.255000000000     0.042400000000     0.133093   
C        C      0.329530000000     0.781100000000     0.322400000000     0.133093   
C        C      0.333130000000     0.864200000000     0.273000000000     0.133093   
C        C      0.656930000000     0.913700000000     0.325200000000     0.133093   
C        C      0.581230000000     0.861300000000     0.337000000000     0.133093   
C        C      0.415930000000     0.836500000000     0.310800000000     0.133093   
C        C      0.405230000000     0.916900000000     0.261800000000     0.133093   
C        C      0.574130000000     0.943100000000     0.288700000000     0.133093   
C        C      0.792430000000     0.957600000000     0.212600000000     0.133093   
C        C      0.662870000000     0.322400000000     0.541300000000     0.133093   
C        C      0.666470000000     0.273000000000     0.408800000000     0.133093   
C        C      0.990270000000     0.325200000000     0.411500000000     0.133093   
C        C      0.914570000000     0.337000000000     0.475700000000     0.133093   
C        C      0.749270000000     0.310800000000     0.474300000000     0.133093   
C        C      0.738570000000     0.261800000000     0.344900000000     0.133093   
C        C      0.907470000000     0.288700000000     0.345600000000     0.133093   
C        C      0.125770000000     0.212600000000     0.255000000000     0.133093   
C        C      0.996200000000     0.458700000000     0.781100000000     0.133093   
C        C      0.999800000000     0.591200000000     0.864200000000     0.133093   
C        C      0.323600000000     0.588500000000     0.913700000000     0.133093   
C        C      0.247900000000     0.524300000000     0.861300000000     0.133093   
C        C      0.082600000000     0.525700000000     0.836500000000     0.133093   
C        C      0.071900000000     0.655100000000     0.916900000000     0.133093   
C        C      0.240800000000     0.654400000000     0.943100000000     0.133093   
C        C      0.459100000000     0.745000000000     0.957600000000     0.133093   
C        C      0.329530000000     0.218900000000     0.677600000000     0.133093   
C        C      0.333130000000     0.135800000000     0.727000000000     0.133093   
C        C      0.656930000000     0.086300000000     0.674800000000     0.133093   
C        C      0.581230000000     0.138700000000     0.663000000000     0.133093   
C        C      0.415930000000     0.163500000000     0.689200000000     0.133093   
C        C      0.405230000000     0.083100000000     0.738200000000     0.133093   
C        C      0.574130000000     0.056900000000     0.711300000000     0.133093   
C        C      0.792430000000     0.042400000000     0.787400000000     0.133093   
C        C      0.666670000000     0.000000000000     0.276500000000     0.133093   
C        C      0.333330000000     0.276500000000     0.000000000000     0.133093   
C        C      0.000000000000     0.723500000000     0.723500000000     0.133093   
C        C      0.666670000000     0.000000000000     0.723500000000     0.133093   
C        C      0.333330000000     0.723500000000     0.000000000000     0.133093   
C        C      0.000000000000     0.276500000000     0.276500000000     0.133093   
O        O      0.925800000000     0.239000000000     0.600600000000    -0.320388   
O        O      0.146200000000     0.242100000000     0.535600000000    -0.320388   
O        O      0.592470000000     0.361600000000     0.761000000000    -0.320388   
O        O      0.812870000000     0.293500000000     0.757900000000    -0.320388   
O        O      0.259130000000     0.399400000000     0.638400000000    -0.320388   
O        O      0.479530000000     0.464400000000     0.706500000000    -0.320388   
O        O      0.925800000000     0.761000000000     0.399400000000    -0.320388   
O        O      0.146200000000     0.757900000000     0.464400000000    -0.320388   
O        O      0.592470000000     0.638400000000     0.239000000000    -0.320388   
O        O      0.812870000000     0.706500000000     0.242100000000    -0.320388   
O        O      0.259130000000     0.600600000000     0.361600000000    -0.320388   
O        O      0.479530000000     0.535600000000     0.293500000000    -0.320388   
O        O      0.740870000000     0.638400000000     0.399400000000    -0.320388   
O        O      0.520470000000     0.706500000000     0.464400000000    -0.320388   
O        O      0.074200000000     0.600600000000     0.239000000000    -0.320388   
O        O      0.853800000000     0.535600000000     0.242100000000    -0.320388   
O        O      0.407530000000     0.761000000000     0.361600000000    -0.320388   
O        O      0.187130000000     0.757900000000     0.293500000000    -0.320388   
O        O      0.740870000000     0.361600000000     0.600600000000    -0.320388   
O        O      0.520470000000     0.293500000000     0.535600000000    -0.320388   
O        O      0.074200000000     0.399400000000     0.761000000000    -0.320388   
O        O      0.853800000000     0.464400000000     0.757900000000    -0.320388   
O        O      0.407530000000     0.239000000000     0.638400000000    -0.320388   
O        O      0.187130000000     0.242100000000     0.706500000000    -0.320388   
F        F      0.415700000000     0.071300000000     0.301800000000    -0.417636   
F        F      0.469100000000     0.003600000000     0.190000000000    -0.417636   
F        F      0.625300000000     0.097600000000     0.253400000000    -0.417636   
F        F      0.082370000000     0.230500000000     0.928700000000    -0.417636   
F        F      0.135770000000     0.186400000000     0.996400000000    -0.417636   
F        F      0.291970000000     0.155800000000     0.902400000000    -0.417636   
F        F      0.749030000000     0.698200000000     0.769500000000    -0.417636   
F        F      0.802430000000     0.810000000000     0.813600000000    -0.417636   
F        F      0.958630000000     0.746600000000     0.844200000000    -0.417636   
F        F      0.415700000000     0.928700000000     0.698200000000    -0.417636   
F        F      0.469100000000     0.996400000000     0.810000000000    -0.417636   
F        F      0.625300000000     0.902400000000     0.746600000000    -0.417636   
F        F      0.082370000000     0.769500000000     0.071300000000    -0.417636   
F        F      0.135770000000     0.813600000000     0.003600000000    -0.417636   
F        F      0.291970000000     0.844200000000     0.097600000000    -0.417636   
F        F      0.749030000000     0.301800000000     0.230500000000    -0.417636   
F        F      0.802430000000     0.190000000000     0.186400000000    -0.417636   
F        F      0.958630000000     0.253400000000     0.155800000000    -0.417636   
F        F      0.250970000000     0.769500000000     0.698200000000    -0.417636   
F        F      0.197570000000     0.813600000000     0.810000000000    -0.417636   
F        F      0.041370000000     0.844200000000     0.746600000000    -0.417636   
F        F      0.584300000000     0.301800000000     0.071300000000    -0.417636   
F        F      0.530900000000     0.190000000000     0.003600000000    -0.417636   
F        F      0.374700000000     0.253400000000     0.097600000000    -0.417636   
F        F      0.917630000000     0.928700000000     0.230500000000    -0.417636   
F        F      0.864230000000     0.996400000000     0.186400000000    -0.417636   
F        F      0.708030000000     0.902400000000     0.155800000000    -0.417636   
F        F      0.250970000000     0.230500000000     0.301800000000    -0.417636   
F        F      0.197570000000     0.186400000000     0.190000000000    -0.417636   
F        F      0.041370000000     0.155800000000     0.253400000000    -0.417636   
F        F      0.584300000000     0.698200000000     0.928700000000    -0.417636   
F        F      0.530900000000     0.810000000000     0.996400000000    -0.417636   
F        F      0.374700000000     0.746600000000     0.902400000000    -0.417636   
F        F      0.917630000000     0.071300000000     0.769500000000    -0.417636   
F        F      0.864230000000     0.003600000000     0.813600000000    -0.417636   
F        F      0.708030000000     0.097600000000     0.844200000000    -0.417636   


