data_PURJIW_original

_audit_creation_method RASPA-1.0
_audit_creation_date 2022-1-29
_audit_author_name 'Felipe Lopes de Oliveira <felipe.lopes.oliveira@ibm.com>'

_cell_length_a    12.458
_cell_length_b    17.2089
_cell_length_c    28.3873
_cell_angle_alpha 81.6004
_cell_angle_beta  77.3245
_cell_angle_gamma 68.7791
_cell_volume      5520.09

_symmetry_cell_setting          triclinic
_symmetry_space_group_name_Hall 'P 1'
_symmetry_space_group_name_H-M  'P 1'
_symmetry_Int_Tables_number     1

_symmetry_equiv_pos_as_xyz 'x,y,z'

loop_
_atom_site_label
_atom_site_type_symbol
_atom_site_fract_x
_atom_site_fract_y
_atom_site_fract_z
_atom_site_charge
Zn       Zn     0.720550000000     0.863690000000     0.828210000000     0.466882   
Zn       Zn     0.796280000000     0.430840000000     0.256220000000     0.466882   
Zn       Zn     0.587550000000     0.363690000000     0.328210000000     0.466882   
Zn       Zn     0.516660000000     0.930840000000     0.756220000000     0.466882   
Zn       Zn     0.412450000000     0.636310000000     0.671790000000     0.466882   
Zn       Zn     0.483340000000     0.069160000000     0.243780000000     0.466882   
Zn       Zn     0.279450000000     0.136310000000     0.171790000000     0.466882   
Zn       Zn     0.203720000000     0.569160000000     0.743780000000     0.466882   
H        H      0.881400000000     0.047300000000     0.760500000000     0.0601923  
H        H      0.941000000000     0.157900000000     0.720500000000     0.0601923  
H        H      0.641200000000     0.251600000000     0.664600000000     0.0601923  
H        H      0.584400000000     0.139900000000     0.705100000000     0.0601923  
H        H      0.957200000000     0.290900000000     0.685100000000     0.0601923  
H        H      0.998700000000     0.225900000000     0.643900000000     0.0601923  
H        H      0.634700000000     0.705800000000     0.687200000000     0.0601923  
H        H      0.715600000000     0.578600000000     0.653000000000     0.0601923  
H        H      0.971700000000     0.507200000000     0.734000000000     0.0601923  
H        H      0.888200000000     0.635800000000     0.768200000000     0.0601923  
H        H      0.363400000000     0.224800000000     0.429800000000     0.0601923  
H        H      0.233800000000     0.200100000000     0.500100000000     0.0601923  
H        H      0.226800000000     0.409200000000     0.550600000000     0.0601923  
H        H      0.348400000000     0.433900000000     0.480900000000     0.0601923  
H        H      0.719900000000     0.340700000000     0.441900000000     0.0601923  
H        H      0.781500000000     0.329400000000     0.514800000000     0.0601923  
H        H      0.013800000000     0.443000000000     0.449400000000     0.0601923  
H        H      0.954300000000     0.452100000000     0.376100000000     0.0601923  
H        H      0.819000000000     0.349700000000     0.579500000000     0.0601923  
H        H      0.942000000000     0.276600000000     0.565000000000     0.0601923  
H        H      0.104100000000     0.346600000000     0.632000000000     0.0601923  
H        H      0.072300000000     0.406100000000     0.584300000000     0.0601923  
H        H      0.784100000000     0.433900000000     0.645300000000     0.0601923  
H        H      0.861100000000     0.479500000000     0.606500000000     0.0601923  
H        H      0.310800000000     0.547300000000     0.260500000000     0.0601923  
H        H      0.180600000000     0.657900000000     0.220500000000     0.0601923  
H        H      0.442600000000     0.751600000000     0.164600000000     0.0601923  
H        H      0.570600000000     0.639900000000     0.205100000000     0.0601923  
H        H      0.066800000000     0.790900000000     0.185100000000     0.0601923  
H        H      0.131500000000     0.725900000000     0.143900000000     0.0601923  
H        H      0.972300000000     0.205800000000     0.187200000000     0.0601923  
H        H      0.052800000000     0.078600000000     0.153000000000     0.0601923  
H        H      0.787100000000     0.007200000000     0.234000000000     0.0601923  
H        H      0.707800000000     0.135800000000     0.268200000000     0.0601923  
H        H      0.982000000000     0.724800000000     0.929800000000     0.0601923  
H        H      0.066000000000     0.700100000000     0.000100000000     0.0601923  
H        H      0.813400000000     0.909200000000     0.050600000000     0.0601923  
H        H      0.736800000000     0.933900000000     0.980900000000     0.0601923  
H        H      0.497500000000     0.840700000000     0.941900000000     0.0601923  
H        H      0.374300000000     0.829400000000     0.014800000000     0.0601923  
H        H      0.093800000000     0.943000000000     0.949400000000     0.0601923  
H        H      0.217500000000     0.952100000000     0.876100000000     0.0601923  
H        H      0.251800000000     0.849700000000     0.079500000000     0.0601923  
H        H      0.216400000000     0.776600000000     0.065000000000     0.0601923  
H        H      0.917300000000     0.846600000000     0.132000000000     0.0601923  
H        H      0.937300000000     0.906100000000     0.084300000000     0.0601923  
H        H      0.136700000000     0.933900000000     0.145300000000     0.0601923  
H        H      0.052900000000     0.979500000000     0.106500000000     0.0601923  
H        H      0.689200000000     0.452700000000     0.739500000000     0.0601923  
H        H      0.819400000000     0.342100000000     0.779500000000     0.0601923  
H        H      0.557400000000     0.248400000000     0.835400000000     0.0601923  
H        H      0.429400000000     0.360100000000     0.794900000000     0.0601923  
H        H      0.933200000000     0.209100000000     0.814900000000     0.0601923  
H        H      0.868500000000     0.274100000000     0.856100000000     0.0601923  
H        H      0.027700000000     0.794200000000     0.812800000000     0.0601923  
H        H      0.947200000000     0.921400000000     0.847000000000     0.0601923  
H        H      0.212900000000     0.992800000000     0.766000000000     0.0601923  
H        H      0.292200000000     0.864200000000     0.731800000000     0.0601923  
H        H      0.018000000000     0.275200000000     0.070200000000     0.0601923  
H        H      0.934000000000     0.299900000000     0.999900000000     0.0601923  
H        H      0.186600000000     0.090800000000     0.949400000000     0.0601923  
H        H      0.263200000000     0.066100000000     0.019100000000     0.0601923  
H        H      0.502500000000     0.159300000000     0.058100000000     0.0601923  
H        H      0.625700000000     0.170600000000     0.985200000000     0.0601923  
H        H      0.906200000000     0.057000000000     0.050600000000     0.0601923  
H        H      0.782500000000     0.047900000000     0.123900000000     0.0601923  
H        H      0.748200000000     0.150300000000     0.920500000000     0.0601923  
H        H      0.783600000000     0.223400000000     0.935000000000     0.0601923  
H        H      0.082700000000     0.153400000000     0.868000000000     0.0601923  
H        H      0.062700000000     0.093900000000     0.915700000000     0.0601923  
H        H      0.863300000000     0.066100000000     0.854700000000     0.0601923  
H        H      0.947100000000     0.020500000000     0.893500000000     0.0601923  
H        H      0.118600000000     0.952700000000     0.239500000000     0.0601923  
H        H      0.059000000000     0.842100000000     0.279500000000     0.0601923  
H        H      0.358800000000     0.748400000000     0.335400000000     0.0601923  
H        H      0.415600000000     0.860100000000     0.294900000000     0.0601923  
H        H      0.042800000000     0.709100000000     0.314900000000     0.0601923  
H        H      0.001300000000     0.774100000000     0.356100000000     0.0601923  
H        H      0.365300000000     0.294200000000     0.312800000000     0.0601923  
H        H      0.284400000000     0.421400000000     0.347000000000     0.0601923  
H        H      0.028300000000     0.492800000000     0.266000000000     0.0601923  
H        H      0.111800000000     0.364200000000     0.231800000000     0.0601923  
H        H      0.636600000000     0.775200000000     0.570200000000     0.0601923  
H        H      0.766200000000     0.799900000000     0.499900000000     0.0601923  
H        H      0.773200000000     0.590800000000     0.449400000000     0.0601923  
H        H      0.651600000000     0.566100000000     0.519100000000     0.0601923  
H        H      0.280100000000     0.659300000000     0.558100000000     0.0601923  
H        H      0.218500000000     0.670600000000     0.485200000000     0.0601923  
H        H      0.986200000000     0.557000000000     0.550600000000     0.0601923  
H        H      0.045700000000     0.547900000000     0.623900000000     0.0601923  
H        H      0.181000000000     0.650300000000     0.420500000000     0.0601923  
H        H      0.058000000000     0.723400000000     0.435000000000     0.0601923  
H        H      0.895900000000     0.653400000000     0.368000000000     0.0601923  
H        H      0.927700000000     0.593900000000     0.415700000000     0.0601923  
H        H      0.215900000000     0.566100000000     0.354700000000     0.0601923  
H        H      0.138900000000     0.520500000000     0.393500000000     0.0601923  
C        C      0.688920000000     0.012040000000     0.761320000000     0.0301666  
C        C      0.726690000000     0.083500000000     0.736920000000     0.0301666  
C        C      0.832800000000     0.088790000000     0.741010000000     0.0301666  
C        C      0.869150000000     0.153880000000     0.717020000000     0.0301666  
C        C      0.798000000000     0.212940000000     0.687860000000     0.0301666  
C        C      0.690510000000     0.209640000000     0.683740000000     0.0301666  
C        C      0.656690000000     0.143630000000     0.708190000000     0.0301666  
C        C      0.940810000000     0.279970000000     0.654610000000     0.0301666  
C        C      0.946360000000     0.350740000000     0.615540000000     0.0301666  
C        C      0.705180000000     0.767230000000     0.751610000000     0.0301666  
C        C      0.754300000000     0.684870000000     0.730530000000     0.0301666  
C        C      0.703660000000     0.665540000000     0.696540000000     0.0301666  
C        C      0.751140000000     0.590000000000     0.676320000000     0.0301666  
C        C      0.850280000000     0.530770000000     0.689870000000     0.0301666  
C        C      0.903180000000     0.547710000000     0.724530000000     0.0301666  
C        C      0.853760000000     0.624350000000     0.744530000000     0.0301666  
C        C      0.449410000000     0.350410000000     0.402970000000     0.0301666  
C        C      0.366590000000     0.332270000000     0.448550000000     0.0301666  
C        C      0.334070000000     0.263050000000     0.454410000000     0.0301666  
C        C      0.257470000000     0.247640000000     0.496420000000     0.0301666  
C        C      0.218250000000     0.303060000000     0.531840000000     0.0301666  
C        C      0.253380000000     0.371470000000     0.525770000000     0.0301666  
C        C      0.325890000000     0.385870000000     0.484550000000     0.0301666  
C        C      0.793300000000     0.401210000000     0.354790000000     0.0301666  
C        C      0.780000000000     0.361460000000     0.443340000000     0.0301666  
C        C      0.815630000000     0.355410000000     0.486730000000     0.0301666  
C        C      0.901450000000     0.387320000000     0.489380000000     0.0301666  
C        C      0.953570000000     0.422370000000     0.447890000000     0.0301666  
C        C      0.918320000000     0.427630000000     0.404330000000     0.0301666  
C        C      0.905030000000     0.336020000000     0.572320000000     0.0301666  
C        C      0.072040000000     0.352270000000     0.602250000000     0.0301666  
C        C      0.864240000000     0.435550000000     0.633370000000     0.0301666  
C        C      0.831360000000     0.397680000000     0.401400000000     0.0301666  
C        C      0.537720000000     0.512040000000     0.261320000000     0.0301666  
C        C      0.452890000000     0.583500000000     0.236920000000     0.0301666  
C        C      0.337400000000     0.588790000000     0.241010000000     0.0301666  
C        C      0.259950000000     0.653880000000     0.217020000000     0.0301666  
C        C      0.301200000000     0.712940000000     0.187860000000     0.0301666  
C        C      0.416110000000     0.709640000000     0.183740000000     0.0301666  
C        C      0.491490000000     0.643630000000     0.208190000000     0.0301666  
C        C      0.124610000000     0.779970000000     0.154610000000     0.0301666  
C        C      0.087360000000     0.850740000000     0.115540000000     0.0301666  
C        C      0.775980000000     0.267230000000     0.251610000000     0.0301666  
C        C      0.830300000000     0.184870000000     0.230530000000     0.0301666  
C        C      0.934260000000     0.165540000000     0.196540000000     0.0301666  
C        C      0.982540000000     0.090000000000     0.176320000000     0.0301666  
C        C      0.929080000000     0.030770000000     0.189870000000     0.0301666  
C        C      0.824580000000     0.047710000000     0.224530000000     0.0301666  
C        C      0.777360000000     0.124350000000     0.244530000000     0.0301666  
C        C      0.797210000000     0.850410000000     0.902970000000     0.0301666  
C        C      0.852590000000     0.832270000000     0.948550000000     0.0301666  
C        C      0.948470000000     0.763050000000     0.954410000000     0.0301666  
C        C      0.998470000000     0.747640000000     0.996420000000     0.0301666  
C        C      0.946850000000     0.803060000000     0.031840000000     0.0301666  
C        C      0.849380000000     0.871470000000     0.025770000000     0.0301666  
C        C      0.803690000000     0.885870000000     0.984550000000     0.0301666  
C        C      0.450700000000     0.901210000000     0.854790000000     0.0301666  
C        C      0.415200000000     0.861460000000     0.943340000000     0.0301666  
C        C      0.342230000000     0.855410000000     0.986730000000     0.0301666  
C        C      0.221850000000     0.887320000000     0.989380000000     0.0301666  
C        C      0.176170000000     0.922370000000     0.947890000000     0.0301666  
C        C      0.249720000000     0.927630000000     0.904330000000     0.0301666  
C        C      0.186630000000     0.836020000000     0.072320000000     0.0301666  
C        C      0.973440000000     0.852270000000     0.102250000000     0.0301666  
C        C      0.066840000000     0.935550000000     0.133370000000     0.0301666  
C        C      0.369560000000     0.897680000000     0.901400000000     0.0301666  
C        C      0.462280000000     0.487960000000     0.738680000000     0.0301666  
C        C      0.547110000000     0.416500000000     0.763080000000     0.0301666  
C        C      0.662600000000     0.411210000000     0.758990000000     0.0301666  
C        C      0.740050000000     0.346120000000     0.782980000000     0.0301666  
C        C      0.698800000000     0.287060000000     0.812140000000     0.0301666  
C        C      0.583890000000     0.290360000000     0.816260000000     0.0301666  
C        C      0.508510000000     0.356370000000     0.791810000000     0.0301666  
C        C      0.875390000000     0.220030000000     0.845390000000     0.0301666  
C        C      0.912640000000     0.149260000000     0.884460000000     0.0301666  
C        C      0.224020000000     0.732770000000     0.748390000000     0.0301666  
C        C      0.169700000000     0.815130000000     0.769470000000     0.0301666  
C        C      0.065740000000     0.834460000000     0.803460000000     0.0301666  
C        C      0.017460000000     0.910000000000     0.823680000000     0.0301666  
C        C      0.070920000000     0.969230000000     0.810130000000     0.0301666  
C        C      0.175420000000     0.952290000000     0.775470000000     0.0301666  
C        C      0.222640000000     0.875650000000     0.755470000000     0.0301666  
C        C      0.202790000000     0.149590000000     0.097030000000     0.0301666  
C        C      0.147410000000     0.167730000000     0.051450000000     0.0301666  
C        C      0.051530000000     0.236950000000     0.045590000000     0.0301666  
C        C      0.001530000000     0.252360000000     0.003580000000     0.0301666  
C        C      0.053150000000     0.196940000000     0.968160000000     0.0301666  
C        C      0.150620000000     0.128530000000     0.974230000000     0.0301666  
C        C      0.196310000000     0.114130000000     0.015450000000     0.0301666  
C        C      0.549300000000     0.098790000000     0.145210000000     0.0301666  
C        C      0.584800000000     0.138540000000     0.056660000000     0.0301666  
C        C      0.657770000000     0.144590000000     0.013270000000     0.0301666  
C        C      0.778150000000     0.112680000000     0.010620000000     0.0301666  
C        C      0.823830000000     0.077630000000     0.052110000000     0.0301666  
C        C      0.750280000000     0.072370000000     0.095670000000     0.0301666  
C        C      0.813370000000     0.163980000000     0.927680000000     0.0301666  
C        C      0.026560000000     0.147730000000     0.897750000000     0.0301666  
C        C      0.933160000000     0.064450000000     0.866630000000     0.0301666  
C        C      0.630440000000     0.102320000000     0.098600000000     0.0301666  
C        C      0.311080000000     0.987960000000     0.238680000000     0.0301666  
C        C      0.273310000000     0.916500000000     0.263080000000     0.0301666  
C        C      0.167200000000     0.911210000000     0.258990000000     0.0301666  
C        C      0.130850000000     0.846120000000     0.282980000000     0.0301666  
C        C      0.202000000000     0.787060000000     0.312140000000     0.0301666  
C        C      0.309490000000     0.790360000000     0.316260000000     0.0301666  
C        C      0.343310000000     0.856370000000     0.291810000000     0.0301666  
C        C      0.059190000000     0.720030000000     0.345390000000     0.0301666  
C        C      0.053640000000     0.649260000000     0.384460000000     0.0301666  
C        C      0.294820000000     0.232770000000     0.248390000000     0.0301666  
C        C      0.245700000000     0.315130000000     0.269470000000     0.0301666  
C        C      0.296340000000     0.334460000000     0.303460000000     0.0301666  
C        C      0.248860000000     0.410000000000     0.323680000000     0.0301666  
C        C      0.149720000000     0.469230000000     0.310130000000     0.0301666  
C        C      0.096820000000     0.452290000000     0.275470000000     0.0301666  
C        C      0.146240000000     0.375650000000     0.255470000000     0.0301666  
C        C      0.550590000000     0.649590000000     0.597030000000     0.0301666  
C        C      0.633410000000     0.667730000000     0.551450000000     0.0301666  
C        C      0.665930000000     0.736950000000     0.545590000000     0.0301666  
C        C      0.742530000000     0.752360000000     0.503580000000     0.0301666  
C        C      0.781750000000     0.696940000000     0.468160000000     0.0301666  
C        C      0.746620000000     0.628530000000     0.474230000000     0.0301666  
C        C      0.674110000000     0.614130000000     0.515450000000     0.0301666  
C        C      0.206700000000     0.598790000000     0.645210000000     0.0301666  
C        C      0.220000000000     0.638540000000     0.556660000000     0.0301666  
C        C      0.184370000000     0.644590000000     0.513270000000     0.0301666  
C        C      0.098550000000     0.612680000000     0.510620000000     0.0301666  
C        C      0.046430000000     0.577630000000     0.552110000000     0.0301666  
C        C      0.081680000000     0.572370000000     0.595670000000     0.0301666  
C        C      0.094970000000     0.663980000000     0.427680000000     0.0301666  
C        C      0.927960000000     0.647730000000     0.397750000000     0.0301666  
C        C      0.135760000000     0.564450000000     0.366630000000     0.0301666  
C        C      0.168640000000     0.602320000000     0.598600000000     0.0301666  
O        O      0.759080000000     0.780240000000     0.780400000000    -0.281156   
O        O      0.752410000000     0.958570000000     0.788530000000    -0.281156   
O        O      0.907340000000     0.453850000000     0.671650000000    -0.281156   
O        O      0.718470000000     0.367850000000     0.354950000000    -0.281156   
O        O      0.839290000000     0.435170000000     0.317630000000    -0.281156   
O        O      0.143380000000     0.284220000000     0.572620000000    -0.281156   
O        O      0.464560000000     0.418700000000     0.397580000000    -0.281156   
O        O      0.937120000000     0.388980000000     0.531220000000    -0.281156   
O        O      0.593900000000     0.010620000000     0.753180000000    -0.281156   
O        O      0.497970000000     0.296280000000     0.373380000000    -0.281156   
O        O      0.612300000000     0.820130000000     0.738070000000    -0.281156   
O        O      0.824370000000     0.278580000000     0.661420000000    -0.281156   
O        O      0.680280000000     0.280240000000     0.280400000000    -0.281156   
O        O      0.500490000000     0.458570000000     0.288530000000    -0.281156   
O        O      0.967160000000     0.953850000000     0.171650000000    -0.281156   
O        O      0.558730000000     0.867850000000     0.854950000000    -0.281156   
O        O      0.407910000000     0.935170000000     0.817630000000    -0.281156   
O        O      0.999780000000     0.784220000000     0.072620000000    -0.281156   
O        O      0.719160000000     0.918700000000     0.897580000000    -0.281156   
O        O      0.142680000000     0.888980000000     0.031220000000    -0.281156   
O        O      0.642300000000     0.510620000000     0.253180000000    -0.281156   
O        O      0.832370000000     0.796280000000     0.873380000000    -0.281156   
O        O      0.829500000000     0.320130000000     0.238070000000    -0.281156   
O        O      0.235630000000     0.778580000000     0.161420000000    -0.281156   
O        O      0.319720000000     0.719760000000     0.719600000000    -0.281156   
O        O      0.499510000000     0.541430000000     0.711470000000    -0.281156   
O        O      0.032840000000     0.046150000000     0.828350000000    -0.281156   
O        O      0.441270000000     0.132150000000     0.145050000000    -0.281156   
O        O      0.592090000000     0.064830000000     0.182370000000    -0.281156   
O        O      0.000220000000     0.215780000000     0.927380000000    -0.281156   
O        O      0.280840000000     0.081300000000     0.102420000000    -0.281156   
O        O      0.857320000000     0.111020000000     0.968780000000    -0.281156   
O        O      0.357700000000     0.489380000000     0.746820000000    -0.281156   
O        O      0.167630000000     0.203720000000     0.126620000000    -0.281156   
O        O      0.170500000000     0.679870000000     0.761930000000    -0.281156   
O        O      0.764370000000     0.221420000000     0.838580000000    -0.281156   
O        O      0.240920000000     0.219760000000     0.219600000000    -0.281156   
O        O      0.247590000000     0.041430000000     0.211470000000    -0.281156   
O        O      0.092660000000     0.546150000000     0.328350000000    -0.281156   
O        O      0.281530000000     0.632150000000     0.645050000000    -0.281156   
O        O      0.160710000000     0.564830000000     0.682370000000    -0.281156   
O        O      0.856620000000     0.715780000000     0.427380000000    -0.281156   
O        O      0.535440000000     0.581300000000     0.602420000000    -0.281156   
O        O      0.062880000000     0.611020000000     0.468780000000    -0.281156   
O        O      0.406100000000     0.989380000000     0.246820000000    -0.281156   
O        O      0.502030000000     0.703720000000     0.626620000000    -0.281156   
O        O      0.387700000000     0.179870000000     0.261930000000    -0.281156   
O        O      0.175630000000     0.721420000000     0.338580000000    -0.281156   


