data_PURJES_original

_audit_creation_method RASPA-1.0
_audit_creation_date 2022-1-30
_audit_author_name 'Felipe Lopes de Oliveira <felipe.lopes.oliveira@ibm.com>'

_cell_length_a    6.9314
_cell_length_b    12.382
_cell_length_c    27.738
_cell_angle_alpha 96.641
_cell_angle_beta  91.231
_cell_angle_gamma 104.221
_cell_volume      2289.09

_symmetry_cell_setting          triclinic
_symmetry_space_group_name_Hall 'P 1'
_symmetry_space_group_name_H-M  'P 1'
_symmetry_Int_Tables_number     1

_symmetry_equiv_pos_as_xyz 'x,y,z'

loop_
_atom_site_label
_atom_site_type_symbol
_atom_site_fract_x
_atom_site_fract_y
_atom_site_fract_z
_atom_site_charge
Zn       Zn     0.296530000000     0.427690000000     0.496370000000     0.446319   
Zn       Zn     0.011100000000     0.635170000000     0.991010000000     0.446319   
Zn       Zn     0.703470000000     0.572310000000     0.503630000000     0.446319   
Zn       Zn     0.988900000000     0.364830000000     0.008990000000     0.446319   
H        H      0.953900000000     0.384300000000     0.602400000000     0.0603509  
H        H      0.040100000000     0.275700000000     0.658800000000     0.0603509  
H        H      0.460800000000     0.109500000000     0.660200000000     0.0603509  
H        H      0.377600000000     0.213900000000     0.603300000000     0.0603509  
H        H      0.091400000000     0.139900000000     0.698200000000     0.0603509  
H        H      0.013600000000     0.212000000000     0.742000000000     0.0603509  
H        H      0.910500000000     0.918100000000     0.695600000000     0.0603509  
H        H      0.979900000000     0.875400000000     0.743900000000     0.0603509  
H        H      0.538100000000     0.938300000000     0.680000000000     0.0603509  
H        H      0.622800000000     0.808300000000     0.622800000000     0.0603509  
H        H      0.049800000000     0.629100000000     0.608600000000     0.0603509  
H        H      0.963100000000     0.760700000000     0.664500000000     0.0603509  
H        H      0.296300000000     0.120300000000     0.772200000000     0.0603509  
H        H      0.198500000000     0.030800000000     0.808000000000     0.0603509  
H        H      0.124900000000     0.355200000000     0.877300000000     0.0603509  
H        H      0.382400000000     0.476600000000     0.927500000000     0.0603509  
H        H      0.742800000000     0.271400000000     0.893100000000     0.0603509  
H        H      0.489300000000     0.152100000000     0.840800000000     0.0603509  
H        H      0.685300000000     0.980800000000     0.758800000000     0.0603509  
H        H      0.774300000000     0.086700000000     0.799100000000     0.0603509  
H        H      0.447000000000     0.935500000000     0.807500000000     0.0603509  
H        H      0.197500000000     0.838500000000     0.853100000000     0.0603509  
H        H      0.604800000000     0.714200000000     0.920400000000     0.0603509  
H        H      0.849200000000     0.805400000000     0.872800000000     0.0603509  
H        H      0.046100000000     0.615700000000     0.397600000000     0.0603509  
H        H      0.959900000000     0.724300000000     0.341200000000     0.0603509  
H        H      0.539200000000     0.890500000000     0.339800000000     0.0603509  
H        H      0.622400000000     0.786100000000     0.396700000000     0.0603509  
H        H      0.908600000000     0.860100000000     0.301800000000     0.0603509  
H        H      0.986400000000     0.788000000000     0.258000000000     0.0603509  
H        H      0.089500000000     0.081900000000     0.304400000000     0.0603509  
H        H      0.020100000000     0.124600000000     0.256100000000     0.0603509  
H        H      0.461900000000     0.061700000000     0.320000000000     0.0603509  
H        H      0.377200000000     0.191700000000     0.377200000000     0.0603509  
H        H      0.950200000000     0.370900000000     0.391400000000     0.0603509  
H        H      0.036900000000     0.239300000000     0.335500000000     0.0603509  
H        H      0.703700000000     0.879700000000     0.227800000000     0.0603509  
H        H      0.801500000000     0.969200000000     0.192000000000     0.0603509  
H        H      0.875100000000     0.644800000000     0.122700000000     0.0603509  
H        H      0.617600000000     0.523400000000     0.072500000000     0.0603509  
H        H      0.257200000000     0.728600000000     0.106900000000     0.0603509  
H        H      0.510700000000     0.847900000000     0.159200000000     0.0603509  
H        H      0.314700000000     0.019200000000     0.241200000000     0.0603509  
H        H      0.225700000000     0.913300000000     0.200900000000     0.0603509  
H        H      0.553000000000     0.064500000000     0.192500000000     0.0603509  
H        H      0.802500000000     0.161500000000     0.146900000000     0.0603509  
H        H      0.395200000000     0.285800000000     0.079600000000     0.0603509  
H        H      0.150800000000     0.194600000000     0.127200000000     0.0603509  
C        C      0.601800000000     0.378400000000     0.560600000000     0.0309203  
C        C      0.656900000000     0.309900000000     0.596600000000     0.0309203  
C        C      0.853300000000     0.327500000000     0.613800000000     0.0309203  
C        C      0.905000000000     0.263500000000     0.647700000000     0.0309203  
C        C      0.760000000000     0.182900000000     0.664700000000     0.0309203  
C        C      0.561700000000     0.165100000000     0.648100000000     0.0309203  
C        C      0.512700000000     0.227200000000     0.614600000000     0.0309203  
C        C      0.986700000000     0.137700000000     0.722000000000     0.0309203  
C        C      0.988100000000     0.047300000000     0.754000000000     0.0309203  
C        C      0.008600000000     0.937700000000     0.723700000000     0.0309203  
C        C      0.239500000000     0.863600000000     0.676300000000     0.0309203  
C        C      0.437900000000     0.876200000000     0.664700000000     0.0309203  
C        C      0.487800000000     0.798300000000     0.631100000000     0.0309203  
C        C      0.347600000000     0.706700000000     0.609300000000     0.0309203  
C        C      0.149100000000     0.693000000000     0.622700000000     0.0309203  
C        C      0.097500000000     0.770900000000     0.655800000000     0.0309203  
C        C      0.402200000000     0.625900000000     0.570400000000     0.0309203  
C        C      0.176000000000     0.091600000000     0.790100000000     0.0309203  
C        C      0.290400000000     0.246500000000     0.852800000000     0.0309203  
C        C      0.252200000000     0.339800000000     0.879700000000     0.0309203  
C        C      0.404500000000     0.410200000000     0.910300000000     0.0309203  
C        C      0.584000000000     0.386600000000     0.916100000000     0.0309203  
C        C      0.617700000000     0.289000000000     0.889500000000     0.0309203  
C        C      0.468300000000     0.218600000000     0.858200000000     0.0309203  
C        C      0.755000000000     0.462700000000     0.947300000000     0.0309203  
C        C      0.800800000000     0.018000000000     0.781500000000     0.0309203  
C        C      0.671100000000     0.884400000000     0.838000000000     0.0309203  
C        C      0.479000000000     0.891500000000     0.830900000000     0.0309203  
C        C      0.331100000000     0.833900000000     0.858100000000     0.0309203  
C        C      0.376400000000     0.770000000000     0.892500000000     0.0309203  
C        C      0.572400000000     0.759600000000     0.897700000000     0.0309203  
C        C      0.717600000000     0.814700000000     0.870000000000     0.0309203  
C        C      0.222200000000     0.718500000000     0.925800000000     0.0309203  
C        C      0.398200000000     0.621600000000     0.439400000000     0.0309203  
C        C      0.343100000000     0.690100000000     0.403400000000     0.0309203  
C        C      0.146700000000     0.672500000000     0.386200000000     0.0309203  
C        C      0.095000000000     0.736500000000     0.352300000000     0.0309203  
C        C      0.240000000000     0.817100000000     0.335300000000     0.0309203  
C        C      0.438300000000     0.834900000000     0.351900000000     0.0309203  
C        C      0.487300000000     0.772800000000     0.385400000000     0.0309203  
C        C      0.013300000000     0.862300000000     0.278000000000     0.0309203  
C        C      0.011900000000     0.952700000000     0.246000000000     0.0309203  
C        C      0.991400000000     0.062300000000     0.276300000000     0.0309203  
C        C      0.760500000000     0.136400000000     0.323700000000     0.0309203  
C        C      0.562100000000     0.123800000000     0.335300000000     0.0309203  
C        C      0.512200000000     0.201700000000     0.368900000000     0.0309203  
C        C      0.652400000000     0.293300000000     0.390700000000     0.0309203  
C        C      0.850900000000     0.307000000000     0.377300000000     0.0309203  
C        C      0.902500000000     0.229100000000     0.344200000000     0.0309203  
C        C      0.597800000000     0.374100000000     0.429600000000     0.0309203  
C        C      0.824000000000     0.908400000000     0.209900000000     0.0309203  
C        C      0.709600000000     0.753500000000     0.147200000000     0.0309203  
C        C      0.747800000000     0.660200000000     0.120300000000     0.0309203  
C        C      0.595500000000     0.589800000000     0.089700000000     0.0309203  
C        C      0.416000000000     0.613400000000     0.083900000000     0.0309203  
C        C      0.382300000000     0.711000000000     0.110500000000     0.0309203  
C        C      0.531700000000     0.781400000000     0.141800000000     0.0309203  
C        C      0.245000000000     0.537300000000     0.052700000000     0.0309203  
C        C      0.199200000000     0.982000000000     0.218500000000     0.0309203  
C        C      0.328900000000     0.115600000000     0.162000000000     0.0309203  
C        C      0.521000000000     0.108500000000     0.169100000000     0.0309203  
C        C      0.668900000000     0.166100000000     0.141900000000     0.0309203  
C        C      0.623600000000     0.230000000000     0.107500000000     0.0309203  
C        C      0.427600000000     0.240400000000     0.102300000000     0.0309203  
C        C      0.282400000000     0.185300000000     0.130000000000     0.0309203  
C        C      0.777800000000     0.281500000000     0.074200000000     0.0309203  
O        O      0.426100000000     0.353700000000     0.544400000000    -0.280119   
O        O      0.732600000000     0.456800000000     0.548100000000    -0.280119   
O        O      0.793800000000     0.112700000000     0.697200000000    -0.280119   
O        O      0.204300000000     0.951700000000     0.706800000000    -0.280119   
O        O      0.272000000000     0.546000000000     0.552500000000    -0.280119   
O        O      0.580700000000     0.650000000000     0.558200000000    -0.280119   
O        O      0.133800000000     0.180800000000     0.823200000000    -0.280119   
O        O      0.731700000000     0.553000000000     0.967400000000    -0.280119   
O        O      0.919400000000     0.433300000000     0.950700000000    -0.280119   
O        O      0.832300000000     0.943100000000     0.815400000000    -0.280119   
O        O      0.045700000000     0.716800000000     0.917900000000    -0.280119   
O        O      0.278300000000     0.677200000000     0.962100000000    -0.280119   
O        O      0.573900000000     0.646300000000     0.455600000000    -0.280119   
O        O      0.267400000000     0.543200000000     0.451900000000    -0.280119   
O        O      0.206200000000     0.887300000000     0.302800000000    -0.280119   
O        O      0.795700000000     0.048300000000     0.293200000000    -0.280119   
O        O      0.728000000000     0.454000000000     0.447500000000    -0.280119   
O        O      0.419300000000     0.350000000000     0.441800000000    -0.280119   
O        O      0.866200000000     0.819200000000     0.176800000000    -0.280119   
O        O      0.268300000000     0.447000000000     0.032600000000    -0.280119   
O        O      0.080600000000     0.566700000000     0.049300000000    -0.280119   
O        O      0.167700000000     0.056900000000     0.184600000000    -0.280119   
O        O      0.954300000000     0.283200000000     0.082100000000    -0.280119   
O        O      0.721700000000     0.322800000000     0.037900000000    -0.280119   


