data_PUSDOX_original

_audit_creation_method RASPA-1.0
_audit_creation_date 2022-1-30
_audit_author_name 'Felipe Lopes de Oliveira <felipe.lopes.oliveira@ibm.com>'

_cell_length_a    14.0493
_cell_length_b    14.0493
_cell_length_c    26.298
_cell_angle_alpha 78.8984
_cell_angle_beta  78.8984
_cell_angle_gamma 79.9286
_cell_volume      4946.88

_symmetry_cell_setting          triclinic
_symmetry_space_group_name_Hall 'P 1'
_symmetry_space_group_name_H-M  'P 1'
_symmetry_Int_Tables_number     1

_symmetry_equiv_pos_as_xyz 'x,y,z'

loop_
_atom_site_label
_atom_site_type_symbol
_atom_site_fract_x
_atom_site_fract_y
_atom_site_fract_z
_atom_site_charge
Zn       Zn     0.190570000000     0.888930000000     0.086920000000     0.459789   
Zn       Zn     0.421600000000     0.827900000000     0.067060000000     0.459789   
Zn       Zn     0.888930000000     0.190570000000     0.586920000000     0.459789   
Zn       Zn     0.827900000000     0.421600000000     0.567060000000     0.459789   
Zn       Zn     0.111070000000     0.809430000000     0.413080000000     0.459789   
Zn       Zn     0.172100000000     0.578400000000     0.432940000000     0.459789   
Zn       Zn     0.809430000000     0.111070000000     0.913080000000     0.459789   
Zn       Zn     0.578400000000     0.172100000000     0.932940000000     0.459789   
H        H      0.165400000000     0.625400000000     0.194500000000     0.0586079  
H        H      0.142600000000     0.470800000000     0.239700000000     0.0586079  
H        H      0.381200000000     0.357000000000     0.148000000000     0.0586079  
H        H      0.408900000000     0.513700000000     0.107200000000     0.0586079  
H        H      0.290900000000     0.125900000000     0.094900000000     0.0586079  
H        H      0.251700000000     0.268700000000     0.130000000000     0.0586079  
H        H      0.315500000000     0.119500000000     0.268900000000     0.0586079  
H        H      0.358700000000     0.978700000000     0.232800000000     0.0586079  
H        H      0.866200000000     0.191400000000     0.422500000000     0.0586079  
H        H      0.892500000000     0.195700000000     0.332900000000     0.0586079  
H        H      0.987100000000     0.456700000000     0.311900000000     0.0586079  
H        H      0.954300000000     0.455100000000     0.401000000000     0.0586079  
H        H      0.999800000000     0.194400000000     0.111500000000     0.0586079  
H        H      0.941700000000     0.319900000000     0.159000000000     0.0586079  
H        H      0.046300000000     0.155700000000     0.284700000000     0.0586079  
H        H      0.104800000000     0.029600000000     0.237100000000     0.0586079  
H        H      0.006600000000     0.825400000000     0.154500000000     0.0586079  
H        H      0.848600000000     0.812200000000     0.149900000000     0.0586079  
H        H      0.916300000000     0.867300000000     0.993300000000     0.0586079  
H        H      0.070100000000     0.885900000000     0.002500000000     0.0586079  
H        H      0.568100000000     0.743900000000     0.133800000000     0.0586079  
H        H      0.729500000000     0.742500000000     0.137500000000     0.0586079  
H        H      0.756700000000     0.906300000000     0.994100000000     0.0586079  
H        H      0.594500000000     0.901900000000     0.993900000000     0.0586079  
H        H      0.625400000000     0.165400000000     0.694500000000     0.0586079  
H        H      0.470800000000     0.142600000000     0.739700000000     0.0586079  
H        H      0.357000000000     0.381200000000     0.648000000000     0.0586079  
H        H      0.513700000000     0.408900000000     0.607200000000     0.0586079  
H        H      0.125900000000     0.290900000000     0.594900000000     0.0586079  
H        H      0.268700000000     0.251700000000     0.630000000000     0.0586079  
H        H      0.119500000000     0.315500000000     0.768900000000     0.0586079  
H        H      0.978700000000     0.358700000000     0.732800000000     0.0586079  
H        H      0.191400000000     0.866200000000     0.922500000000     0.0586079  
H        H      0.195700000000     0.892500000000     0.832900000000     0.0586079  
H        H      0.456700000000     0.987100000000     0.811900000000     0.0586079  
H        H      0.455100000000     0.954300000000     0.901000000000     0.0586079  
H        H      0.194400000000     0.999800000000     0.611500000000     0.0586079  
H        H      0.319900000000     0.941700000000     0.659000000000     0.0586079  
H        H      0.155700000000     0.046300000000     0.784700000000     0.0586079  
H        H      0.029600000000     0.104800000000     0.737100000000     0.0586079  
H        H      0.825400000000     0.006600000000     0.654500000000     0.0586079  
H        H      0.812200000000     0.848600000000     0.649900000000     0.0586079  
H        H      0.867300000000     0.916300000000     0.493300000000     0.0586079  
H        H      0.885900000000     0.070100000000     0.502500000000     0.0586079  
H        H      0.743900000000     0.568100000000     0.633800000000     0.0586079  
H        H      0.742500000000     0.729500000000     0.637500000000     0.0586079  
H        H      0.906300000000     0.756700000000     0.494100000000     0.0586079  
H        H      0.901900000000     0.594500000000     0.493900000000     0.0586079  
H        H      0.374600000000     0.834600000000     0.305500000000     0.0586079  
H        H      0.529200000000     0.857400000000     0.260300000000     0.0586079  
H        H      0.643000000000     0.618800000000     0.352000000000     0.0586079  
H        H      0.486300000000     0.591100000000     0.392800000000     0.0586079  
H        H      0.874100000000     0.709100000000     0.405100000000     0.0586079  
H        H      0.731300000000     0.748300000000     0.370000000000     0.0586079  
H        H      0.880500000000     0.684500000000     0.231100000000     0.0586079  
H        H      0.021300000000     0.641300000000     0.267200000000     0.0586079  
H        H      0.808600000000     0.133800000000     0.077500000000     0.0586079  
H        H      0.804300000000     0.107500000000     0.167100000000     0.0586079  
H        H      0.543300000000     0.012900000000     0.188100000000     0.0586079  
H        H      0.544900000000     0.045700000000     0.099000000000     0.0586079  
H        H      0.805600000000     0.000200000000     0.388500000000     0.0586079  
H        H      0.680100000000     0.058300000000     0.341000000000     0.0586079  
H        H      0.844300000000     0.953700000000     0.215300000000     0.0586079  
H        H      0.970400000000     0.895200000000     0.262900000000     0.0586079  
H        H      0.174600000000     0.993400000000     0.345500000000     0.0586079  
H        H      0.187800000000     0.151400000000     0.350100000000     0.0586079  
H        H      0.132700000000     0.083700000000     0.506700000000     0.0586079  
H        H      0.114100000000     0.929900000000     0.497500000000     0.0586079  
H        H      0.256100000000     0.431900000000     0.366200000000     0.0586079  
H        H      0.257500000000     0.270500000000     0.362500000000     0.0586079  
H        H      0.093700000000     0.243300000000     0.505900000000     0.0586079  
H        H      0.098100000000     0.405500000000     0.506100000000     0.0586079  
H        H      0.834600000000     0.374600000000     0.805500000000     0.0586079  
H        H      0.857400000000     0.529200000000     0.760300000000     0.0586079  
H        H      0.618800000000     0.643000000000     0.852000000000     0.0586079  
H        H      0.591100000000     0.486300000000     0.892800000000     0.0586079  
H        H      0.709100000000     0.874100000000     0.905100000000     0.0586079  
H        H      0.748300000000     0.731300000000     0.870000000000     0.0586079  
H        H      0.684500000000     0.880500000000     0.731100000000     0.0586079  
H        H      0.641300000000     0.021300000000     0.767200000000     0.0586079  
H        H      0.133800000000     0.808600000000     0.577500000000     0.0586079  
H        H      0.107500000000     0.804300000000     0.667100000000     0.0586079  
H        H      0.012900000000     0.543300000000     0.688100000000     0.0586079  
H        H      0.045700000000     0.544900000000     0.599000000000     0.0586079  
H        H      0.000200000000     0.805600000000     0.888500000000     0.0586079  
H        H      0.058300000000     0.680100000000     0.841000000000     0.0586079  
H        H      0.953700000000     0.844300000000     0.715300000000     0.0586079  
H        H      0.895200000000     0.970400000000     0.762900000000     0.0586079  
H        H      0.993400000000     0.174600000000     0.845500000000     0.0586079  
H        H      0.151400000000     0.187800000000     0.850100000000     0.0586079  
H        H      0.083700000000     0.132700000000     0.006700000000     0.0586079  
H        H      0.929900000000     0.114100000000     0.997500000000     0.0586079  
H        H      0.431900000000     0.256100000000     0.866200000000     0.0586079  
H        H      0.270500000000     0.257500000000     0.862500000000     0.0586079  
H        H      0.243300000000     0.093700000000     0.005900000000     0.0586079  
H        H      0.405500000000     0.098100000000     0.006100000000     0.0586079  
C        C      0.303670000000     0.686270000000     0.119240000000     0.0170322  
C        C      0.288480000000     0.584280000000     0.146690000000     0.0170322  
C        C      0.209660000000     0.571260000000     0.185730000000     0.0170322  
C        C      0.195000000000     0.478600000000     0.212310000000     0.0170322  
C        C      0.258690000000     0.397290000000     0.198010000000     0.0170322  
C        C      0.338400000000     0.411000000000     0.158030000000     0.0170322  
C        C      0.354310000000     0.504710000000     0.133000000000     0.0170322  
C        C      0.359820000000     0.944820000000     0.137640000000     0.0170322  
C        C      0.329560000000     0.037160000000     0.160220000000     0.0170322  
C        C      0.296640000000     0.124840000000     0.129630000000     0.0170322  
C        C      0.272420000000     0.210220000000     0.150830000000     0.0170322  
C        C      0.278710000000     0.209310000000     0.202980000000     0.0170322  
C        C      0.311110000000     0.121110000000     0.233910000000     0.0170322  
C        C      0.336450000000     0.037050000000     0.212290000000     0.0170322  
C        C      0.243750000000     0.298750000000     0.228240000000     0.0170322  
C        C      0.886640000000     0.323640000000     0.478850000000     0.0170322  
C        C      0.907620000000     0.322560000000     0.420980000000     0.0170322  
C        C      0.889520000000     0.245120000000     0.400170000000     0.0170322  
C        C      0.905960000000     0.247360000000     0.346550000000     0.0170322  
C        C      0.942700000000     0.327300000000     0.312570000000     0.0170322  
C        C      0.961600000000     0.403800000000     0.333990000000     0.0170322  
C        C      0.943060000000     0.402460000000     0.387350000000     0.0170322  
C        C      0.107760000000     0.021960000000     0.137130000000     0.0170322  
C        C      0.060670000000     0.099870000000     0.169180000000     0.0170322  
C        C      0.009840000000     0.187040000000     0.146110000000     0.0170322  
C        C      0.974800000000     0.261800000000     0.174640000000     0.0170322  
C        C      0.988110000000     0.251510000000     0.226620000000     0.0170322  
C        C      0.037350000000     0.163550000000     0.249870000000     0.0170322  
C        C      0.072730000000     0.088330000000     0.221350000000     0.0170322  
C        C      0.957700000000     0.336900000000     0.254640000000     0.0170322  
C        C      0.987780000000     0.834380000000     0.121610000000     0.0170322  
C        C      0.893090000000     0.825290000000     0.119190000000     0.0170322  
C        C      0.864050000000     0.835850000000     0.070530000000     0.0170322  
C        C      0.932700000000     0.858700000000     0.026740000000     0.0170322  
C        C      0.025450000000     0.868850000000     0.032590000000     0.0170322  
C        C      0.606600000000     0.777400000000     0.105610000000     0.0170322  
C        C      0.703130000000     0.776930000000     0.108310000000     0.0170322  
C        C      0.761410000000     0.828410000000     0.066960000000     0.0170322  
C        C      0.719310000000     0.873910000000     0.023250000000     0.0170322  
C        C      0.622110000000     0.870710000000     0.023310000000     0.0170322  
C        C      0.686270000000     0.303670000000     0.619240000000     0.0170322  
C        C      0.584280000000     0.288480000000     0.646690000000     0.0170322  
C        C      0.571260000000     0.209660000000     0.685730000000     0.0170322  
C        C      0.478600000000     0.195000000000     0.712310000000     0.0170322  
C        C      0.397290000000     0.258690000000     0.698010000000     0.0170322  
C        C      0.411000000000     0.338400000000     0.658030000000     0.0170322  
C        C      0.504710000000     0.354310000000     0.633000000000     0.0170322  
C        C      0.944820000000     0.359820000000     0.637640000000     0.0170322  
C        C      0.037160000000     0.329560000000     0.660220000000     0.0170322  
C        C      0.124840000000     0.296640000000     0.629630000000     0.0170322  
C        C      0.210220000000     0.272420000000     0.650830000000     0.0170322  
C        C      0.209310000000     0.278710000000     0.702980000000     0.0170322  
C        C      0.121110000000     0.311110000000     0.733910000000     0.0170322  
C        C      0.037050000000     0.336450000000     0.712290000000     0.0170322  
C        C      0.298750000000     0.243750000000     0.728240000000     0.0170322  
C        C      0.323640000000     0.886640000000     0.978850000000     0.0170322  
C        C      0.322560000000     0.907620000000     0.920980000000     0.0170322  
C        C      0.245120000000     0.889520000000     0.900170000000     0.0170322  
C        C      0.247360000000     0.905960000000     0.846550000000     0.0170322  
C        C      0.327300000000     0.942700000000     0.812570000000     0.0170322  
C        C      0.403800000000     0.961600000000     0.833990000000     0.0170322  
C        C      0.402460000000     0.943060000000     0.887350000000     0.0170322  
C        C      0.021960000000     0.107760000000     0.637130000000     0.0170322  
C        C      0.099870000000     0.060670000000     0.669180000000     0.0170322  
C        C      0.187040000000     0.009840000000     0.646110000000     0.0170322  
C        C      0.261800000000     0.974800000000     0.674640000000     0.0170322  
C        C      0.251510000000     0.988110000000     0.726620000000     0.0170322  
C        C      0.163550000000     0.037350000000     0.749870000000     0.0170322  
C        C      0.088330000000     0.072730000000     0.721350000000     0.0170322  
C        C      0.336900000000     0.957700000000     0.754640000000     0.0170322  
C        C      0.834380000000     0.987780000000     0.621610000000     0.0170322  
C        C      0.825290000000     0.893090000000     0.619190000000     0.0170322  
C        C      0.835850000000     0.864050000000     0.570530000000     0.0170322  
C        C      0.858700000000     0.932700000000     0.526740000000     0.0170322  
C        C      0.868850000000     0.025450000000     0.532590000000     0.0170322  
C        C      0.777400000000     0.606600000000     0.605610000000     0.0170322  
C        C      0.776930000000     0.703130000000     0.608310000000     0.0170322  
C        C      0.828410000000     0.761410000000     0.566960000000     0.0170322  
C        C      0.873910000000     0.719310000000     0.523250000000     0.0170322  
C        C      0.870710000000     0.622110000000     0.523310000000     0.0170322  
C        C      0.313730000000     0.696330000000     0.380760000000     0.0170322  
C        C      0.415720000000     0.711520000000     0.353310000000     0.0170322  
C        C      0.428740000000     0.790340000000     0.314270000000     0.0170322  
C        C      0.521400000000     0.805000000000     0.287690000000     0.0170322  
C        C      0.602710000000     0.741310000000     0.301990000000     0.0170322  
C        C      0.589000000000     0.661600000000     0.341970000000     0.0170322  
C        C      0.495290000000     0.645690000000     0.367000000000     0.0170322  
C        C      0.055180000000     0.640180000000     0.362360000000     0.0170322  
C        C      0.962840000000     0.670440000000     0.339780000000     0.0170322  
C        C      0.875160000000     0.703360000000     0.370370000000     0.0170322  
C        C      0.789780000000     0.727580000000     0.349170000000     0.0170322  
C        C      0.790690000000     0.721290000000     0.297020000000     0.0170322  
C        C      0.878890000000     0.688890000000     0.266090000000     0.0170322  
C        C      0.962950000000     0.663550000000     0.287710000000     0.0170322  
C        C      0.701250000000     0.756250000000     0.271760000000     0.0170322  
C        C      0.676360000000     0.113360000000     0.021150000000     0.0170322  
C        C      0.677440000000     0.092380000000     0.079020000000     0.0170322  
C        C      0.754880000000     0.110480000000     0.099830000000     0.0170322  
C        C      0.752640000000     0.094040000000     0.153450000000     0.0170322  
C        C      0.672700000000     0.057300000000     0.187430000000     0.0170322  
C        C      0.596200000000     0.038400000000     0.166010000000     0.0170322  
C        C      0.597540000000     0.056940000000     0.112650000000     0.0170322  
C        C      0.978040000000     0.892240000000     0.362870000000     0.0170322  
C        C      0.900130000000     0.939330000000     0.330820000000     0.0170322  
C        C      0.812960000000     0.990160000000     0.353890000000     0.0170322  
C        C      0.738200000000     0.025200000000     0.325360000000     0.0170322  
C        C      0.748490000000     0.011890000000     0.273380000000     0.0170322  
C        C      0.836450000000     0.962650000000     0.250130000000     0.0170322  
C        C      0.911670000000     0.927270000000     0.278650000000     0.0170322  
C        C      0.663100000000     0.042300000000     0.245360000000     0.0170322  
C        C      0.165620000000     0.012220000000     0.378390000000     0.0170322  
C        C      0.174710000000     0.106910000000     0.380810000000     0.0170322  
C        C      0.164150000000     0.135950000000     0.429470000000     0.0170322  
C        C      0.141300000000     0.067300000000     0.473260000000     0.0170322  
C        C      0.131150000000     0.974550000000     0.467410000000     0.0170322  
C        C      0.222600000000     0.393400000000     0.394390000000     0.0170322  
C        C      0.223070000000     0.296870000000     0.391690000000     0.0170322  
C        C      0.171590000000     0.238590000000     0.433040000000     0.0170322  
C        C      0.126090000000     0.280690000000     0.476750000000     0.0170322  
C        C      0.129290000000     0.377890000000     0.476690000000     0.0170322  
C        C      0.696330000000     0.313730000000     0.880760000000     0.0170322  
C        C      0.711520000000     0.415720000000     0.853310000000     0.0170322  
C        C      0.790340000000     0.428740000000     0.814270000000     0.0170322  
C        C      0.805000000000     0.521400000000     0.787690000000     0.0170322  
C        C      0.741310000000     0.602710000000     0.801990000000     0.0170322  
C        C      0.661600000000     0.589000000000     0.841970000000     0.0170322  
C        C      0.645690000000     0.495290000000     0.867000000000     0.0170322  
C        C      0.640180000000     0.055180000000     0.862360000000     0.0170322  
C        C      0.670440000000     0.962840000000     0.839780000000     0.0170322  
C        C      0.703360000000     0.875160000000     0.870370000000     0.0170322  
C        C      0.727580000000     0.789780000000     0.849170000000     0.0170322  
C        C      0.721290000000     0.790690000000     0.797020000000     0.0170322  
C        C      0.688890000000     0.878890000000     0.766090000000     0.0170322  
C        C      0.663550000000     0.962950000000     0.787710000000     0.0170322  
C        C      0.756250000000     0.701250000000     0.771760000000     0.0170322  
C        C      0.113360000000     0.676360000000     0.521150000000     0.0170322  
C        C      0.092380000000     0.677440000000     0.579020000000     0.0170322  
C        C      0.110480000000     0.754880000000     0.599830000000     0.0170322  
C        C      0.094040000000     0.752640000000     0.653450000000     0.0170322  
C        C      0.057300000000     0.672700000000     0.687430000000     0.0170322  
C        C      0.038400000000     0.596200000000     0.666010000000     0.0170322  
C        C      0.056940000000     0.597540000000     0.612650000000     0.0170322  
C        C      0.892240000000     0.978040000000     0.862870000000     0.0170322  
C        C      0.939330000000     0.900130000000     0.830820000000     0.0170322  
C        C      0.990160000000     0.812960000000     0.853890000000     0.0170322  
C        C      0.025200000000     0.738200000000     0.825360000000     0.0170322  
C        C      0.011890000000     0.748490000000     0.773380000000     0.0170322  
C        C      0.962650000000     0.836450000000     0.750130000000     0.0170322  
C        C      0.927270000000     0.911670000000     0.778650000000     0.0170322  
C        C      0.042300000000     0.663100000000     0.745360000000     0.0170322  
C        C      0.012220000000     0.165620000000     0.878390000000     0.0170322  
C        C      0.106910000000     0.174710000000     0.880810000000     0.0170322  
C        C      0.135950000000     0.164150000000     0.929470000000     0.0170322  
C        C      0.067300000000     0.141300000000     0.973260000000     0.0170322  
C        C      0.974550000000     0.131150000000     0.967410000000     0.0170322  
C        C      0.393400000000     0.222600000000     0.894390000000     0.0170322  
C        C      0.296870000000     0.223070000000     0.891690000000     0.0170322  
C        C      0.238590000000     0.171590000000     0.933040000000     0.0170322  
C        C      0.280690000000     0.126090000000     0.976750000000     0.0170322  
C        C      0.377890000000     0.129290000000     0.976690000000     0.0170322  
N        N      0.054720000000     0.855600000000     0.078610000000    -0.163103   
N        N      0.565550000000     0.823930000000     0.064360000000    -0.163103   
N        N      0.855600000000     0.054720000000     0.578610000000    -0.163103   
N        N      0.823930000000     0.565550000000     0.564360000000    -0.163103   
N        N      0.144400000000     0.945280000000     0.421390000000    -0.163103   
N        N      0.176070000000     0.434450000000     0.435640000000    -0.163103   
N        N      0.945280000000     0.144400000000     0.921390000000    -0.163103   
N        N      0.434450000000     0.176070000000     0.935640000000    -0.163103   
O        O      0.231830000000     0.753030000000     0.123280000000    -0.268125   
O        O      0.388570000000     0.697370000000     0.093840000000    -0.268125   
O        O      0.335460000000     0.943280000000     0.092220000000    -0.268125   
O        O      0.410500000000     0.874420000000     0.159920000000    -0.268125   
O        O      0.201250000000     0.290410000000     0.273830000000    -0.268125   
O        O      0.889060000000     0.242240000000     0.509720000000    -0.268125   
O        O      0.867720000000     0.406940000000     0.492750000000    -0.268125   
O        O      0.121090000000     0.041790000000     0.087900000000    -0.268125   
O        O      0.135490000000     0.936290000000     0.160480000000    -0.268125   
O        O      0.946810000000     0.420610000000     0.228420000000    -0.268125   
O        O      0.753030000000     0.231830000000     0.623280000000    -0.268125   
O        O      0.697370000000     0.388570000000     0.593840000000    -0.268125   
O        O      0.943280000000     0.335460000000     0.592220000000    -0.268125   
O        O      0.874420000000     0.410500000000     0.659920000000    -0.268125   
O        O      0.290410000000     0.201250000000     0.773830000000    -0.268125   
O        O      0.242240000000     0.889060000000     0.009720000000    -0.268125   
O        O      0.406940000000     0.867720000000     0.992750000000    -0.268125   
O        O      0.041790000000     0.121090000000     0.587900000000    -0.268125   
O        O      0.936290000000     0.135490000000     0.660480000000    -0.268125   
O        O      0.420610000000     0.946810000000     0.728420000000    -0.268125   
O        O      0.246970000000     0.768170000000     0.376720000000    -0.268125   
O        O      0.302630000000     0.611430000000     0.406160000000    -0.268125   
O        O      0.056720000000     0.664540000000     0.407780000000    -0.268125   
O        O      0.125580000000     0.589500000000     0.340080000000    -0.268125   
O        O      0.709590000000     0.798750000000     0.226170000000    -0.268125   
O        O      0.757760000000     0.110940000000     0.990280000000    -0.268125   
O        O      0.593060000000     0.132280000000     0.007250000000    -0.268125   
O        O      0.958210000000     0.878910000000     0.412100000000    -0.268125   
O        O      0.063710000000     0.864510000000     0.339520000000    -0.268125   
O        O      0.579390000000     0.053190000000     0.271580000000    -0.268125   
O        O      0.768170000000     0.246970000000     0.876720000000    -0.268125   
O        O      0.611430000000     0.302630000000     0.906160000000    -0.268125   
O        O      0.664540000000     0.056720000000     0.907780000000    -0.268125   
O        O      0.589500000000     0.125580000000     0.840080000000    -0.268125   
O        O      0.798750000000     0.709590000000     0.726170000000    -0.268125   
O        O      0.110940000000     0.757760000000     0.490280000000    -0.268125   
O        O      0.132280000000     0.593060000000     0.507250000000    -0.268125   
O        O      0.878910000000     0.958210000000     0.912100000000    -0.268125   
O        O      0.864510000000     0.063710000000     0.839520000000    -0.268125   
O        O      0.053190000000     0.579390000000     0.771580000000    -0.268125   


