data_PUSDIR_original

_audit_creation_method RASPA-1.0
_audit_creation_date 2022-1-31
_audit_author_name 'Felipe Lopes de Oliveira <felipe.lopes.oliveira@ibm.com>'

_cell_length_a    14.0137
_cell_length_b    14.0137
_cell_length_c    26.041
_cell_angle_alpha 79.2491
_cell_angle_beta  79.2491
_cell_angle_gamma 78.6107
_cell_volume      4865.46

_symmetry_cell_setting          triclinic
_symmetry_space_group_name_Hall 'P 1'
_symmetry_space_group_name_H-M  'P 1'
_symmetry_Int_Tables_number     1

_symmetry_equiv_pos_as_xyz 'x,y,z'

loop_
_atom_site_label
_atom_site_type_symbol
_atom_site_fract_x
_atom_site_fract_y
_atom_site_fract_z
_atom_site_charge
Zn       Zn     0.198340000000     0.883520000000     0.087430000000     0.459316   
Zn       Zn     0.428890000000     0.820330000000     0.068680000000     0.459316   
Zn       Zn     0.883520000000     0.198340000000     0.587430000000     0.459316   
Zn       Zn     0.820330000000     0.428890000000     0.568680000000     0.459316   
Zn       Zn     0.116480000000     0.801660000000     0.412570000000     0.459316   
Zn       Zn     0.179670000000     0.571110000000     0.431320000000     0.459316   
Zn       Zn     0.801660000000     0.116480000000     0.912570000000     0.459316   
Zn       Zn     0.571110000000     0.179670000000     0.931320000000     0.459316   
H        H      0.042600000000     0.158800000000     0.284500000000     0.0587099  
H        H      0.757500000000     0.911900000000     0.995700000000     0.0587099  
H        H      0.595800000000     0.903800000000     0.995600000000     0.0587099  
H        H      0.362700000000     0.972300000000     0.234900000000     0.0587099  
H        H      0.105400000000     0.030200000000     0.236600000000     0.0587099  
H        H      0.422600000000     0.502200000000     0.112500000000     0.0587099  
H        H      0.255200000000     0.266600000000     0.131700000000     0.0587099  
H        H      0.855500000000     0.198700000000     0.421600000000     0.0587099  
H        H      0.998800000000     0.193200000000     0.109500000000     0.0587099  
H        H      0.292200000000     0.122600000000     0.096200000000     0.0587099  
H        H      0.318300000000     0.112900000000     0.271900000000     0.0587099  
H        H      0.390100000000     0.347300000000     0.153400000000     0.0587099  
H        H      0.582300000000     0.731700000000     0.132200000000     0.0587099  
H        H      0.921000000000     0.870400000000     0.992900000000     0.0587099  
H        H      0.743600000000     0.733600000000     0.135400000000     0.0587099  
H        H      0.181900000000     0.624700000000     0.201600000000     0.0587099  
H        H      0.075900000000     0.883100000000     0.002200000000     0.0587099  
H        H      0.946600000000     0.459000000000     0.401900000000     0.0587099  
H        H      0.857700000000     0.806100000000     0.150100000000     0.0587099  
H        H      0.017000000000     0.816000000000     0.154900000000     0.0587099  
H        H      0.158800000000     0.471400000000     0.246700000000     0.0587099  
H        H      0.935300000000     0.319900000000     0.156800000000     0.0587099  
H        H      0.882500000000     0.201900000000     0.330300000000     0.0587099  
H        H      0.978000000000     0.461200000000     0.311300000000     0.0587099  
H        H      0.158800000000     0.042600000000     0.784500000000     0.0587099  
H        H      0.911900000000     0.757500000000     0.495700000000     0.0587099  
H        H      0.903800000000     0.595800000000     0.495600000000     0.0587099  
H        H      0.972300000000     0.362700000000     0.734900000000     0.0587099  
H        H      0.030200000000     0.105400000000     0.736600000000     0.0587099  
H        H      0.502200000000     0.422600000000     0.612500000000     0.0587099  
H        H      0.266600000000     0.255200000000     0.631700000000     0.0587099  
H        H      0.198700000000     0.855500000000     0.921600000000     0.0587099  
H        H      0.193200000000     0.998800000000     0.609500000000     0.0587099  
H        H      0.122600000000     0.292200000000     0.596200000000     0.0587099  
H        H      0.112900000000     0.318300000000     0.771900000000     0.0587099  
H        H      0.347300000000     0.390100000000     0.653400000000     0.0587099  
H        H      0.731700000000     0.582300000000     0.632200000000     0.0587099  
H        H      0.870400000000     0.921000000000     0.492900000000     0.0587099  
H        H      0.733600000000     0.743600000000     0.635400000000     0.0587099  
H        H      0.624700000000     0.181900000000     0.701600000000     0.0587099  
H        H      0.883100000000     0.075900000000     0.502200000000     0.0587099  
H        H      0.459000000000     0.946600000000     0.901900000000     0.0587099  
H        H      0.806100000000     0.857700000000     0.650100000000     0.0587099  
H        H      0.816000000000     0.017000000000     0.654900000000     0.0587099  
H        H      0.471400000000     0.158800000000     0.746700000000     0.0587099  
H        H      0.319900000000     0.935300000000     0.656800000000     0.0587099  
H        H      0.201900000000     0.882500000000     0.830300000000     0.0587099  
H        H      0.461200000000     0.978000000000     0.811300000000     0.0587099  
H        H      0.841200000000     0.957400000000     0.215500000000     0.0587099  
H        H      0.088100000000     0.242500000000     0.504300000000     0.0587099  
H        H      0.096200000000     0.404200000000     0.504400000000     0.0587099  
H        H      0.027700000000     0.637300000000     0.265100000000     0.0587099  
H        H      0.969800000000     0.894600000000     0.263400000000     0.0587099  
H        H      0.497800000000     0.577400000000     0.387500000000     0.0587099  
H        H      0.733400000000     0.744800000000     0.368300000000     0.0587099  
H        H      0.801300000000     0.144500000000     0.078400000000     0.0587099  
H        H      0.806800000000     0.001200000000     0.390500000000     0.0587099  
H        H      0.877400000000     0.707800000000     0.403800000000     0.0587099  
H        H      0.887100000000     0.681700000000     0.228100000000     0.0587099  
H        H      0.652700000000     0.609900000000     0.346600000000     0.0587099  
H        H      0.268300000000     0.417700000000     0.367800000000     0.0587099  
H        H      0.129600000000     0.079000000000     0.507100000000     0.0587099  
H        H      0.266400000000     0.256400000000     0.364600000000     0.0587099  
H        H      0.375300000000     0.818100000000     0.298400000000     0.0587099  
H        H      0.116900000000     0.924100000000     0.497800000000     0.0587099  
H        H      0.541000000000     0.053400000000     0.098100000000     0.0587099  
H        H      0.193900000000     0.142300000000     0.349900000000     0.0587099  
H        H      0.184000000000     0.983000000000     0.345100000000     0.0587099  
H        H      0.528600000000     0.841200000000     0.253300000000     0.0587099  
H        H      0.680100000000     0.064700000000     0.343200000000     0.0587099  
H        H      0.798100000000     0.117500000000     0.169700000000     0.0587099  
H        H      0.538800000000     0.022000000000     0.188700000000     0.0587099  
H        H      0.957400000000     0.841200000000     0.715500000000     0.0587099  
H        H      0.242500000000     0.088100000000     0.004300000000     0.0587099  
H        H      0.404200000000     0.096200000000     0.004400000000     0.0587099  
H        H      0.637300000000     0.027700000000     0.765100000000     0.0587099  
H        H      0.894600000000     0.969800000000     0.763400000000     0.0587099  
H        H      0.577400000000     0.497800000000     0.887500000000     0.0587099  
H        H      0.744800000000     0.733400000000     0.868300000000     0.0587099  
H        H      0.144500000000     0.801300000000     0.578400000000     0.0587099  
H        H      0.001200000000     0.806800000000     0.890500000000     0.0587099  
H        H      0.707800000000     0.877400000000     0.903800000000     0.0587099  
H        H      0.681700000000     0.887100000000     0.728100000000     0.0587099  
H        H      0.609900000000     0.652700000000     0.846600000000     0.0587099  
H        H      0.417700000000     0.268300000000     0.867800000000     0.0587099  
H        H      0.079000000000     0.129600000000     0.007100000000     0.0587099  
H        H      0.256400000000     0.266400000000     0.864600000000     0.0587099  
H        H      0.818100000000     0.375300000000     0.798400000000     0.0587099  
H        H      0.924100000000     0.116900000000     0.997800000000     0.0587099  
H        H      0.053400000000     0.541000000000     0.598100000000     0.0587099  
H        H      0.142300000000     0.193900000000     0.849900000000     0.0587099  
H        H      0.983000000000     0.184000000000     0.845100000000     0.0587099  
H        H      0.841200000000     0.528600000000     0.753300000000     0.0587099  
H        H      0.064700000000     0.680100000000     0.843200000000     0.0587099  
H        H      0.117500000000     0.798100000000     0.669700000000     0.0587099  
H        H      0.022000000000     0.538800000000     0.688700000000     0.0587099  
C        C      0.332560000000     0.032560000000     0.161850000000     0.017022   
C        C      0.034450000000     0.166050000000     0.249250000000     0.017022   
C        C      0.723040000000     0.875240000000     0.024000000000     0.017022   
C        C      0.625980000000     0.870180000000     0.024260000000     0.017022   
C        C      0.364120000000     0.939320000000     0.138360000000     0.017022   
C        C      0.339950000000     0.031350000000     0.214450000000     0.017022   
C        C      0.061570000000     0.100170000000     0.167860000000     0.017022   
C        C      0.072460000000     0.089260000000     0.220470000000     0.017022   
C        C      0.317850000000     0.678850000000     0.122660000000     0.017022   
C        C      0.367120000000     0.496320000000     0.137980000000     0.017022   
C        C      0.275360000000     0.207360000000     0.152680000000     0.017022   
C        C      0.878800000000     0.252000000000     0.399230000000     0.017022   
C        C      0.983900000000     0.254300000000     0.225240000000     0.017022   
C        C      0.874900000000     0.331100000000     0.478970000000     0.017022   
C        C      0.008600000000     0.186600000000     0.144480000000     0.017022   
C        C      0.298830000000     0.121430000000     0.131150000000     0.017022   
C        C      0.281700000000     0.205900000000     0.205730000000     0.017022   
C        C      0.268800000000     0.393800000000     0.202320000000     0.017022   
C        C      0.769040000000     0.825240000000     0.066300000000     0.017022   
C        C      0.314390000000     0.115190000000     0.236410000000     0.017022   
C        C      0.348220000000     0.403420000000     0.163240000000     0.017022   
C        C      0.617970000000     0.768770000000     0.104540000000     0.017022   
C        C      0.938900000000     0.858300000000     0.026500000000     0.017022   
C        C      0.109850000000     0.020650000000     0.136140000000     0.017022   
C        C      0.872010000000     0.832810000000     0.070080000000     0.017022   
C        C      0.895900000000     0.329100000000     0.420450000000     0.017022   
C        C      0.714610000000     0.769810000000     0.106840000000     0.017022   
C        C      0.302820000000     0.579620000000     0.151160000000     0.017022   
C        C      0.224600000000     0.569000000000     0.191900000000     0.017022   
C        C      0.248000000000     0.295400000000     0.231740000000     0.017022   
C        C      0.032000000000     0.866000000000     0.032470000000     0.017022   
C        C      0.933900000000     0.407500000000     0.387520000000     0.017022   
C        C      0.901700000000     0.819700000000     0.119300000000     0.017022   
C        C      0.997100000000     0.827300000000     0.121910000000     0.017022   
C        C      0.952700000000     0.339900000000     0.252560000000     0.017022   
C        C      0.934300000000     0.331900000000     0.311130000000     0.017022   
C        C      0.209300000000     0.477100000000     0.218200000000     0.017022   
C        C      0.970600000000     0.262200000000     0.172820000000     0.017022   
C        C      0.896200000000     0.253000000000     0.344480000000     0.017022   
C        C      0.952700000000     0.408700000000     0.333310000000     0.017022   
C        C      0.032560000000     0.332560000000     0.661850000000     0.017022   
C        C      0.166050000000     0.034450000000     0.749250000000     0.017022   
C        C      0.875240000000     0.723040000000     0.524000000000     0.017022   
C        C      0.870180000000     0.625980000000     0.524260000000     0.017022   
C        C      0.939320000000     0.364120000000     0.638360000000     0.017022   
C        C      0.031350000000     0.339950000000     0.714450000000     0.017022   
C        C      0.100170000000     0.061570000000     0.667860000000     0.017022   
C        C      0.089260000000     0.072460000000     0.720470000000     0.017022   
C        C      0.678850000000     0.317850000000     0.622660000000     0.017022   
C        C      0.496320000000     0.367120000000     0.637980000000     0.017022   
C        C      0.207360000000     0.275360000000     0.652680000000     0.017022   
C        C      0.252000000000     0.878800000000     0.899230000000     0.017022   
C        C      0.254300000000     0.983900000000     0.725240000000     0.017022   
C        C      0.331100000000     0.874900000000     0.978970000000     0.017022   
C        C      0.186600000000     0.008600000000     0.644480000000     0.017022   
C        C      0.121430000000     0.298830000000     0.631150000000     0.017022   
C        C      0.205900000000     0.281700000000     0.705730000000     0.017022   
C        C      0.393800000000     0.268800000000     0.702320000000     0.017022   
C        C      0.825240000000     0.769040000000     0.566300000000     0.017022   
C        C      0.115190000000     0.314390000000     0.736410000000     0.017022   
C        C      0.403420000000     0.348220000000     0.663240000000     0.017022   
C        C      0.768770000000     0.617970000000     0.604540000000     0.017022   
C        C      0.858300000000     0.938900000000     0.526500000000     0.017022   
C        C      0.020650000000     0.109850000000     0.636140000000     0.017022   
C        C      0.832810000000     0.872010000000     0.570080000000     0.017022   
C        C      0.329100000000     0.895900000000     0.920450000000     0.017022   
C        C      0.769810000000     0.714610000000     0.606840000000     0.017022   
C        C      0.579620000000     0.302820000000     0.651160000000     0.017022   
C        C      0.569000000000     0.224600000000     0.691900000000     0.017022   
C        C      0.295400000000     0.248000000000     0.731740000000     0.017022   
C        C      0.866000000000     0.032000000000     0.532470000000     0.017022   
C        C      0.407500000000     0.933900000000     0.887520000000     0.017022   
C        C      0.819700000000     0.901700000000     0.619300000000     0.017022   
C        C      0.827300000000     0.997100000000     0.621910000000     0.017022   
C        C      0.339900000000     0.952700000000     0.752560000000     0.017022   
C        C      0.331900000000     0.934300000000     0.811130000000     0.017022   
C        C      0.477100000000     0.209300000000     0.718200000000     0.017022   
C        C      0.262200000000     0.970600000000     0.672820000000     0.017022   
C        C      0.253000000000     0.896200000000     0.844480000000     0.017022   
C        C      0.408700000000     0.952700000000     0.833310000000     0.017022   
C        C      0.967440000000     0.667440000000     0.338150000000     0.017022   
C        C      0.833950000000     0.965550000000     0.250750000000     0.017022   
C        C      0.124760000000     0.276960000000     0.476000000000     0.017022   
C        C      0.129820000000     0.374020000000     0.475740000000     0.017022   
C        C      0.060680000000     0.635880000000     0.361640000000     0.017022   
C        C      0.968650000000     0.660050000000     0.285550000000     0.017022   
C        C      0.899830000000     0.938430000000     0.332140000000     0.017022   
C        C      0.910740000000     0.927540000000     0.279530000000     0.017022   
C        C      0.321150000000     0.682150000000     0.377340000000     0.017022   
C        C      0.503680000000     0.632880000000     0.362020000000     0.017022   
C        C      0.792640000000     0.724640000000     0.347320000000     0.017022   
C        C      0.748000000000     0.121200000000     0.100770000000     0.017022   
C        C      0.745700000000     0.016100000000     0.274760000000     0.017022   
C        C      0.668900000000     0.125100000000     0.021030000000     0.017022   
C        C      0.813400000000     0.991400000000     0.355520000000     0.017022   
C        C      0.878570000000     0.701170000000     0.368850000000     0.017022   
C        C      0.794100000000     0.718300000000     0.294270000000     0.017022   
C        C      0.606200000000     0.731200000000     0.297680000000     0.017022   
C        C      0.174760000000     0.230960000000     0.433700000000     0.017022   
C        C      0.884810000000     0.685610000000     0.263590000000     0.017022   
C        C      0.596580000000     0.651780000000     0.336760000000     0.017022   
C        C      0.231230000000     0.382030000000     0.395460000000     0.017022   
C        C      0.141700000000     0.061100000000     0.473500000000     0.017022   
C        C      0.979350000000     0.890150000000     0.363860000000     0.017022   
C        C      0.167190000000     0.127990000000     0.429920000000     0.017022   
C        C      0.670900000000     0.104100000000     0.079550000000     0.017022   
C        C      0.230190000000     0.285390000000     0.393160000000     0.017022   
C        C      0.420380000000     0.697180000000     0.348840000000     0.017022   
C        C      0.431000000000     0.775400000000     0.308100000000     0.017022   
C        C      0.704600000000     0.752000000000     0.268260000000     0.017022   
C        C      0.134000000000     0.968000000000     0.467530000000     0.017022   
C        C      0.592500000000     0.066100000000     0.112480000000     0.017022   
C        C      0.180300000000     0.098300000000     0.380700000000     0.017022   
C        C      0.172700000000     0.002900000000     0.378090000000     0.017022   
C        C      0.660100000000     0.047300000000     0.247440000000     0.017022   
C        C      0.668100000000     0.065700000000     0.188870000000     0.017022   
C        C      0.522900000000     0.790700000000     0.281800000000     0.017022   
C        C      0.737800000000     0.029400000000     0.327180000000     0.017022   
C        C      0.747000000000     0.103800000000     0.155520000000     0.017022   
C        C      0.591300000000     0.047300000000     0.166690000000     0.017022   
C        C      0.667440000000     0.967440000000     0.838150000000     0.017022   
C        C      0.965550000000     0.833950000000     0.750750000000     0.017022   
C        C      0.276960000000     0.124760000000     0.976000000000     0.017022   
C        C      0.374020000000     0.129820000000     0.975740000000     0.017022   
C        C      0.635880000000     0.060680000000     0.861640000000     0.017022   
C        C      0.660050000000     0.968650000000     0.785550000000     0.017022   
C        C      0.938430000000     0.899830000000     0.832140000000     0.017022   
C        C      0.927540000000     0.910740000000     0.779530000000     0.017022   
C        C      0.682150000000     0.321150000000     0.877340000000     0.017022   
C        C      0.632880000000     0.503680000000     0.862020000000     0.017022   
C        C      0.724640000000     0.792640000000     0.847320000000     0.017022   
C        C      0.121200000000     0.748000000000     0.600770000000     0.017022   
C        C      0.016100000000     0.745700000000     0.774760000000     0.017022   
C        C      0.125100000000     0.668900000000     0.521030000000     0.017022   
C        C      0.991400000000     0.813400000000     0.855520000000     0.017022   
C        C      0.701170000000     0.878570000000     0.868850000000     0.017022   
C        C      0.718300000000     0.794100000000     0.794270000000     0.017022   
C        C      0.731200000000     0.606200000000     0.797680000000     0.017022   
C        C      0.230960000000     0.174760000000     0.933700000000     0.017022   
C        C      0.685610000000     0.884810000000     0.763590000000     0.017022   
C        C      0.651780000000     0.596580000000     0.836760000000     0.017022   
C        C      0.382030000000     0.231230000000     0.895460000000     0.017022   
C        C      0.061100000000     0.141700000000     0.973500000000     0.017022   
C        C      0.890150000000     0.979350000000     0.863860000000     0.017022   
C        C      0.127990000000     0.167190000000     0.929920000000     0.017022   
C        C      0.104100000000     0.670900000000     0.579550000000     0.017022   
C        C      0.285390000000     0.230190000000     0.893160000000     0.017022   
C        C      0.697180000000     0.420380000000     0.848840000000     0.017022   
C        C      0.775400000000     0.431000000000     0.808100000000     0.017022   
C        C      0.752000000000     0.704600000000     0.768260000000     0.017022   
C        C      0.968000000000     0.134000000000     0.967530000000     0.017022   
C        C      0.066100000000     0.592500000000     0.612480000000     0.017022   
C        C      0.098300000000     0.180300000000     0.880700000000     0.017022   
C        C      0.002900000000     0.172700000000     0.878090000000     0.017022   
C        C      0.047300000000     0.660100000000     0.747440000000     0.017022   
C        C      0.065700000000     0.668100000000     0.688870000000     0.017022   
C        C      0.790700000000     0.522900000000     0.781800000000     0.017022   
C        C      0.029400000000     0.737800000000     0.827180000000     0.017022   
C        C      0.103800000000     0.747000000000     0.655520000000     0.017022   
C        C      0.047300000000     0.591300000000     0.666690000000     0.017022   
N        N      0.062870000000     0.850470000000     0.078450000000    -0.163245   
N        N      0.572680000000     0.818500000000     0.064420000000    -0.163245   
N        N      0.850470000000     0.062870000000     0.578450000000    -0.163245   
N        N      0.818500000000     0.572680000000     0.564420000000    -0.163245   
N        N      0.149530000000     0.937130000000     0.421550000000    -0.163245   
N        N      0.181500000000     0.427320000000     0.435580000000    -0.163245   
N        N      0.937130000000     0.149530000000     0.921550000000    -0.163245   
N        N      0.427320000000     0.181500000000     0.935580000000    -0.163245   
O        O      0.140320000000     0.935240000000     0.160050000000    -0.268206   
O        O      0.123840000000     0.039560000000     0.086200000000    -0.268206   
O        O      0.879760000000     0.249240000000     0.509460000000    -0.268206   
O        O      0.339510000000     0.939090000000     0.092010000000    -0.268206   
O        O      0.416320000000     0.867860000000     0.160120000000    -0.268206   
O        O      0.202300000000     0.288460000000     0.276730000000    -0.268206   
O        O      0.244330000000     0.747390000000     0.124880000000    -0.268206   
O        O      0.854630000000     0.414330000000     0.493210000000    -0.268206   
O        O      0.401990000000     0.688510000000     0.096950000000    -0.268206   
O        O      0.942100000000     0.423700000000     0.226360000000    -0.268206   
O        O      0.935240000000     0.140320000000     0.660050000000    -0.268206   
O        O      0.039560000000     0.123840000000     0.586200000000    -0.268206   
O        O      0.249240000000     0.879760000000     0.009460000000    -0.268206   
O        O      0.939090000000     0.339510000000     0.592010000000    -0.268206   
O        O      0.867860000000     0.416320000000     0.660120000000    -0.268206   
O        O      0.288460000000     0.202300000000     0.776730000000    -0.268206   
O        O      0.747390000000     0.244330000000     0.624880000000    -0.268206   
O        O      0.414330000000     0.854630000000     0.993210000000    -0.268206   
O        O      0.688510000000     0.401990000000     0.596950000000    -0.268206   
O        O      0.423700000000     0.942100000000     0.726360000000    -0.268206   
O        O      0.064760000000     0.859680000000     0.339950000000    -0.268206   
O        O      0.960440000000     0.876160000000     0.413800000000    -0.268206   
O        O      0.750760000000     0.120240000000     0.990540000000    -0.268206   
O        O      0.060910000000     0.660490000000     0.407990000000    -0.268206   
O        O      0.132140000000     0.583680000000     0.339880000000    -0.268206   
O        O      0.711540000000     0.797700000000     0.223270000000    -0.268206   
O        O      0.252610000000     0.755670000000     0.375120000000    -0.268206   
O        O      0.585670000000     0.145370000000     0.006790000000    -0.268206   
O        O      0.311490000000     0.598010000000     0.403050000000    -0.268206   
O        O      0.576300000000     0.057900000000     0.273640000000    -0.268206   
O        O      0.859680000000     0.064760000000     0.839950000000    -0.268206   
O        O      0.876160000000     0.960440000000     0.913800000000    -0.268206   
O        O      0.120240000000     0.750760000000     0.490540000000    -0.268206   
O        O      0.660490000000     0.060910000000     0.907990000000    -0.268206   
O        O      0.583680000000     0.132140000000     0.839880000000    -0.268206   
O        O      0.797700000000     0.711540000000     0.723270000000    -0.268206   
O        O      0.755670000000     0.252610000000     0.875120000000    -0.268206   
O        O      0.145370000000     0.585670000000     0.506790000000    -0.268206   
O        O      0.598010000000     0.311490000000     0.903050000000    -0.268206   
O        O      0.057900000000     0.576300000000     0.773640000000    -0.268206   


