data_QAQSAD_original

_audit_creation_method RASPA-1.0
_audit_creation_date 2022-1-30
_audit_author_name 'Felipe Lopes de Oliveira <felipe.lopes.oliveira@ibm.com>'

_cell_length_a    10.327
_cell_length_b    11.067
_cell_length_c    11.692
_cell_angle_alpha 112.33
_cell_angle_beta  97.31
_cell_angle_gamma 106.79
_cell_volume      1140.21

_symmetry_cell_setting          triclinic
_symmetry_space_group_name_Hall 'P 1'
_symmetry_space_group_name_H-M  'P 1'
_symmetry_Int_Tables_number     1

_symmetry_equiv_pos_as_xyz 'x,y,z'

loop_
_atom_site_label
_atom_site_type_symbol
_atom_site_fract_x
_atom_site_fract_y
_atom_site_fract_z
_atom_site_charge
Zn       Zn     0.833360000000     0.167110000000     0.860020000000     0.462329   
Zn       Zn     0.166640000000     0.832890000000     0.139980000000     0.462329   
Zn       Zn     0.000000000000     0.000000000000     0.000000000000     0.462329   
H        H      0.095200000000     0.330900000000     0.336000000000     0.0640203  
H        H      0.228100000000     0.453700000000     0.568000000000     0.0640203  
H        H      0.749300000000     0.398900000000     0.223800000000     0.0640203  
H        H      0.677500000000     0.660200000000     0.820000000000     0.0640203  
H        H      0.558100000000     0.427300000000     0.685500000000     0.0640203  
H        H      0.575100000000     0.763600000000     0.534900000000     0.0640203  
H        H      0.352500000000     0.146000000000     0.914200000000     0.0640203  
H        H      0.584000000000     0.290600000000     0.983100000000     0.0640203  
H        H      0.233200000000     0.469100000000     0.940100000000     0.0640203  
H        H      0.904800000000     0.669100000000     0.664000000000     0.0640203  
H        H      0.771900000000     0.546300000000     0.432000000000     0.0640203  
H        H      0.250700000000     0.601100000000     0.776200000000     0.0640203  
H        H      0.322500000000     0.339800000000     0.180000000000     0.0640203  
H        H      0.441900000000     0.572700000000     0.314500000000     0.0640203  
H        H      0.424900000000     0.236400000000     0.465100000000     0.0640203  
H        H      0.647500000000     0.854000000000     0.085800000000     0.0640203  
H        H      0.416000000000     0.709400000000     0.016900000000     0.0640203  
H        H      0.766800000000     0.530900000000     0.059900000000     0.0640203  
C        C      0.910500000000     0.255300000000     0.124700000000     0.0254698  
C        C      0.921800000000     0.350400000000     0.260400000000     0.0254698  
C        C      0.031700000000     0.375300000000     0.356300000000     0.0254698  
C        C      0.050300000000     0.467600000000     0.486000000000     0.0254698  
C        C      0.162600000000     0.495700000000     0.586400000000     0.0254698  
C        C      0.823400000000     0.415800000000     0.289200000000     0.0254698  
C        C      0.720800000000     0.887900000000     0.778300000000     0.0254698  
C        C      0.639200000000     0.735800000000     0.688900000000     0.0254698  
C        C      0.633400000000     0.632700000000     0.734900000000     0.0254698  
C        C      0.563100000000     0.493700000000     0.654200000000     0.0254698  
C        C      0.573300000000     0.695500000000     0.563500000000     0.0254698  
C        C      0.497600000000     0.448900000000     0.523300000000     0.0254698  
C        C      0.117400000000     0.200500000000     0.885200000000     0.0254698  
C        C      0.268500000000     0.294600000000     0.922000000000     0.0254698  
C        C      0.376200000000     0.240700000000     0.934300000000     0.0254698  
C        C      0.514600000000     0.327300000000     0.975300000000     0.0254698  
C        C      0.553700000000     0.472700000000     0.006400000000     0.0254698  
C        C      0.304000000000     0.434600000000     0.950000000000     0.0254698  
C        C      0.089500000000     0.744700000000     0.875300000000     0.0254698  
C        C      0.078200000000     0.649600000000     0.739600000000     0.0254698  
C        C      0.968300000000     0.624700000000     0.643700000000     0.0254698  
C        C      0.949700000000     0.532400000000     0.514000000000     0.0254698  
C        C      0.837400000000     0.504300000000     0.413600000000     0.0254698  
C        C      0.176600000000     0.584200000000     0.710800000000     0.0254698  
C        C      0.279200000000     0.112100000000     0.221700000000     0.0254698  
C        C      0.360800000000     0.264200000000     0.311100000000     0.0254698  
C        C      0.366600000000     0.367300000000     0.265100000000     0.0254698  
C        C      0.436900000000     0.506300000000     0.345800000000     0.0254698  
C        C      0.426700000000     0.304500000000     0.436500000000     0.0254698  
C        C      0.502400000000     0.551100000000     0.476700000000     0.0254698  
C        C      0.882600000000     0.799500000000     0.114800000000     0.0254698  
C        C      0.731500000000     0.705400000000     0.078000000000     0.0254698  
C        C      0.623800000000     0.759300000000     0.065700000000     0.0254698  
C        C      0.485400000000     0.672700000000     0.024700000000     0.0254698  
C        C      0.446300000000     0.527300000000     0.993600000000     0.0254698  
C        C      0.696000000000     0.565400000000     0.050000000000     0.0254698  
O        O      0.993500000000     0.191550000000     0.107290000000    -0.288022   
O        O      0.819000000000     0.249400000000     0.036220000000    -0.288022   
O        O      0.713600000000     0.977870000000     0.735840000000    -0.288022   
O        O      0.791300000000     0.921810000000     0.888080000000    -0.288022   
O        O      0.086300000000     0.077710000000     0.875590000000    -0.288022   
O        O      0.027100000000     0.253200000000     0.865400000000    -0.288022   
O        O      0.006500000000     0.808450000000     0.892710000000    -0.288022   
O        O      0.181000000000     0.750600000000     0.963780000000    -0.288022   
O        O      0.286400000000     0.022130000000     0.264160000000    -0.288022   
O        O      0.208700000000     0.078190000000     0.111920000000    -0.288022   
O        O      0.913700000000     0.922290000000     0.124410000000    -0.288022   
O        O      0.972900000000     0.746800000000     0.134600000000    -0.288022   


