data_QARCET_original

_audit_creation_method RASPA-1.0
_audit_creation_date 2022-1-29
_audit_author_name 'Felipe Lopes de Oliveira <felipe.lopes.oliveira@ibm.com>'

_cell_length_a    13.551
_cell_length_b    16.181
_cell_length_c    16.54
_cell_angle_alpha 109.46
_cell_angle_beta  101.21
_cell_angle_gamma 109.75
_cell_volume      3019.68

_symmetry_cell_setting          triclinic
_symmetry_space_group_name_Hall 'P 1'
_symmetry_space_group_name_H-M  'P 1'
_symmetry_Int_Tables_number     1

_symmetry_equiv_pos_as_xyz 'x,y,z'

loop_
_atom_site_label
_atom_site_type_symbol
_atom_site_fract_x
_atom_site_fract_y
_atom_site_fract_z
_atom_site_charge
Zn       Zn     0.504570000000     0.423150000000     0.824760000000     0.374449   
Zn       Zn     0.829590000000     0.543170000000     0.426530000000     0.374449   
Zn       Zn     0.410810000000     0.796470000000     0.489120000000     0.374449   
Zn       Zn     0.495430000000     0.576850000000     0.175240000000     0.374449   
Zn       Zn     0.170410000000     0.456830000000     0.573470000000     0.374449   
Zn       Zn     0.589190000000     0.203530000000     0.510880000000     0.374449   
H        H      0.875900000000     0.679600000000     0.878500000000     0.0577639  
H        H      0.841200000000     0.671000000000     0.731000000000     0.0577639  
H        H      0.658000000000     0.583900000000     0.628900000000     0.0577639  
H        H      0.523900000000     0.491900000000     0.667900000000     0.0577639  
H        H      0.029500000000     0.732300000000     0.110800000000     0.0577639  
H        H      0.168300000000     0.874900000000     0.132800000000     0.0577639  
H        H      0.119000000000     0.988500000000     0.101100000000     0.0577639  
H        H      0.935000000000     0.949000000000     0.032700000000     0.0577639  
H        H      0.004100000000     0.885500000000     0.678400000000     0.0577639  
H        H      0.838500000000     0.898000000000     0.682300000000     0.0577639  
H        H      0.669000000000     0.767700000000     0.585300000000     0.0577639  
H        H      0.667900000000     0.629100000000     0.488400000000     0.0577639  
H        H      0.125500000000     0.818200000000     0.786800000000     0.0577639  
H        H      0.213000000000     0.960700000000     0.922000000000     0.0577639  
H        H      0.317200000000     0.104200000000     0.916900000000     0.0577639  
H        H      0.341800000000     0.099700000000     0.783300000000     0.0577639  
H        H      0.044400000000     0.755700000000     0.289900000000     0.0577639  
H        H      0.988200000000     0.600600000000     0.179900000000     0.0577639  
H        H      0.093300000000     0.517800000000     0.193500000000     0.0577639  
H        H      0.250500000000     0.590500000000     0.320400000000     0.0577639  
H        H      0.095800000000     0.959700000000     0.319900000000     0.0577639  
H        H      0.909200000000     0.908300000000     0.242000000000     0.0577639  
H        H      0.776400000000     0.824500000000     0.290300000000     0.0577639  
H        H      0.831300000000     0.791700000000     0.409100000000     0.0577639  
H        H      0.124100000000     0.320400000000     0.121500000000     0.0577639  
H        H      0.158800000000     0.329000000000     0.269000000000     0.0577639  
H        H      0.342000000000     0.416100000000     0.371100000000     0.0577639  
H        H      0.476100000000     0.508100000000     0.332100000000     0.0577639  
H        H      0.970500000000     0.267700000000     0.889200000000     0.0577639  
H        H      0.831700000000     0.125100000000     0.867200000000     0.0577639  
H        H      0.881000000000     0.011500000000     0.898900000000     0.0577639  
H        H      0.065000000000     0.051000000000     0.967300000000     0.0577639  
H        H      0.995900000000     0.114500000000     0.321600000000     0.0577639  
H        H      0.161500000000     0.102000000000     0.317700000000     0.0577639  
H        H      0.331000000000     0.232300000000     0.414700000000     0.0577639  
H        H      0.332100000000     0.370900000000     0.511600000000     0.0577639  
H        H      0.874500000000     0.181800000000     0.213200000000     0.0577639  
H        H      0.787000000000     0.039300000000     0.078000000000     0.0577639  
H        H      0.682800000000     0.895800000000     0.083100000000     0.0577639  
H        H      0.658200000000     0.900300000000     0.216700000000     0.0577639  
H        H      0.955600000000     0.244300000000     0.710100000000     0.0577639  
H        H      0.011800000000     0.399400000000     0.820100000000     0.0577639  
H        H      0.906700000000     0.482200000000     0.806500000000     0.0577639  
H        H      0.749500000000     0.409500000000     0.679600000000     0.0577639  
H        H      0.904200000000     0.040300000000     0.680100000000     0.0577639  
H        H      0.090800000000     0.091700000000     0.758000000000     0.0577639  
H        H      0.223600000000     0.175500000000     0.709700000000     0.0577639  
H        H      0.168700000000     0.208300000000     0.590900000000     0.0577639  
C        C      0.546800000000     0.412100000000     0.000500000000     0.0208617  
C        C      0.722600000000     0.561900000000     0.189100000000     0.0208617  
C        C      0.645400000000     0.499300000000     0.019200000000     0.0208617  
C        C      0.729500000000     0.567600000000     0.102900000000     0.0208617  
C        C      0.815300000000     0.655900000000     0.031500000000     0.0208617  
C        C      0.731000000000     0.588500000000     0.946900000000     0.0208617  
C        C      0.718200000000     0.590700000000     0.856200000000     0.0208617  
C        C      0.804500000000     0.642300000000     0.835000000000     0.0208617  
C        C      0.783800000000     0.638100000000     0.747500000000     0.0208617  
C        C      0.675900000000     0.584000000000     0.686200000000     0.0208617  
C        C      0.595800000000     0.530800000000     0.710500000000     0.0208617  
C        C      0.905500000000     0.750600000000     0.048600000000     0.0208617  
C        C      0.011400000000     0.774800000000     0.091700000000     0.0208617  
C        C      0.093600000000     0.860800000000     0.108100000000     0.0208617  
C        C      0.064100000000     0.927700000000     0.087200000000     0.0208617  
C        C      0.953700000000     0.903600000000     0.046100000000     0.0208617  
C        C      0.029900000000     0.514400000000     0.408500000000     0.0208617  
C        C      0.279600000000     0.637300000000     0.537100000000     0.0208617  
C        C      0.077500000000     0.611400000000     0.485100000000     0.0208617  
C        C      0.190100000000     0.670200000000     0.541400000000     0.0208617  
C        C      0.143100000000     0.787200000000     0.625300000000     0.0208617  
C        C      0.028700000000     0.728600000000     0.571500000000     0.0208617  
C        C      0.928700000000     0.747300000000     0.580300000000     0.0208617  
C        C      0.935200000000     0.833400000000     0.640100000000     0.0208617  
C        C      0.836300000000     0.840700000000     0.642100000000     0.0208617  
C        C      0.735800000000     0.763700000000     0.584900000000     0.0208617  
C        C      0.736100000000     0.681400000000     0.527800000000     0.0208617  
C        C      0.187600000000     0.879100000000     0.709900000000     0.0208617  
C        C      0.170800000000     0.876500000000     0.787600000000     0.0208617  
C        C      0.221400000000     0.961100000000     0.867700000000     0.0208617  
C        C      0.284100000000     0.045400000000     0.864800000000     0.0208617  
C        C      0.297500000000     0.042000000000     0.784000000000     0.0208617  
C        C      0.508800000000     0.002100000000     0.616700000000     0.0208617  
C        C      0.426900000000     0.162000000000     0.620000000000     0.0208617  
C        C      0.399800000000     0.986100000000     0.561400000000     0.0208617  
C        C      0.358700000000     0.054700000000     0.564100000000     0.0208617  
C        C      0.189100000000     0.932600000000     0.457400000000     0.0208617  
C        C      0.235000000000     0.865100000000     0.444000000000     0.0208617  
C        C      0.182500000000     0.763200000000     0.369900000000     0.0208617  
C        C      0.086500000000     0.721600000000     0.295700000000     0.0208617  
C        C      0.053400000000     0.629300000000     0.230100000000     0.0208617  
C        C      0.114400000000     0.580000000000     0.237900000000     0.0208617  
C        C      0.209000000000     0.624800000000     0.313800000000     0.0208617  
C        C      0.069500000000     0.905400000000     0.410300000000     0.0208617  
C        C      0.040700000000     0.925600000000     0.337800000000     0.0208617  
C        C      0.930400000000     0.895100000000     0.291600000000     0.0208617  
C        C      0.851900000000     0.845000000000     0.319700000000     0.0208617  
C        C      0.885500000000     0.825600000000     0.390500000000     0.0208617  
C        C      0.453200000000     0.587900000000     0.999500000000     0.0208617  
C        C      0.277400000000     0.438100000000     0.810900000000     0.0208617  
C        C      0.354600000000     0.500700000000     0.980800000000     0.0208617  
C        C      0.270500000000     0.432400000000     0.897100000000     0.0208617  
C        C      0.184700000000     0.344100000000     0.968500000000     0.0208617  
C        C      0.269000000000     0.411500000000     0.053100000000     0.0208617  
C        C      0.281800000000     0.409300000000     0.143800000000     0.0208617  
C        C      0.195500000000     0.357700000000     0.165000000000     0.0208617  
C        C      0.216200000000     0.361900000000     0.252500000000     0.0208617  
C        C      0.324100000000     0.416000000000     0.313800000000     0.0208617  
C        C      0.404200000000     0.469200000000     0.289500000000     0.0208617  
C        C      0.094500000000     0.249400000000     0.951400000000     0.0208617  
C        C      0.988600000000     0.225200000000     0.908300000000     0.0208617  
C        C      0.906400000000     0.139200000000     0.891900000000     0.0208617  
C        C      0.935900000000     0.072300000000     0.912800000000     0.0208617  
C        C      0.046300000000     0.096400000000     0.953900000000     0.0208617  
C        C      0.970100000000     0.485600000000     0.591500000000     0.0208617  
C        C      0.720400000000     0.362700000000     0.462900000000     0.0208617  
C        C      0.922500000000     0.388600000000     0.514900000000     0.0208617  
C        C      0.809900000000     0.329800000000     0.458600000000     0.0208617  
C        C      0.856900000000     0.212800000000     0.374700000000     0.0208617  
C        C      0.971300000000     0.271400000000     0.428500000000     0.0208617  
C        C      0.071300000000     0.252700000000     0.419700000000     0.0208617  
C        C      0.064800000000     0.166600000000     0.359900000000     0.0208617  
C        C      0.163700000000     0.159300000000     0.357900000000     0.0208617  
C        C      0.264200000000     0.236300000000     0.415100000000     0.0208617  
C        C      0.263900000000     0.318600000000     0.472200000000     0.0208617  
C        C      0.812400000000     0.120900000000     0.290100000000     0.0208617  
C        C      0.829200000000     0.123500000000     0.212400000000     0.0208617  
C        C      0.778600000000     0.038900000000     0.132300000000     0.0208617  
C        C      0.715900000000     0.954600000000     0.135200000000     0.0208617  
C        C      0.702500000000     0.958000000000     0.216000000000     0.0208617  
C        C      0.491200000000     0.997900000000     0.383300000000     0.0208617  
C        C      0.573100000000     0.838000000000     0.380000000000     0.0208617  
C        C      0.600200000000     0.013900000000     0.438600000000     0.0208617  
C        C      0.641300000000     0.945300000000     0.435900000000     0.0208617  
C        C      0.810900000000     0.067400000000     0.542600000000     0.0208617  
C        C      0.765000000000     0.134900000000     0.556000000000     0.0208617  
C        C      0.817500000000     0.236800000000     0.630100000000     0.0208617  
C        C      0.913500000000     0.278400000000     0.704300000000     0.0208617  
C        C      0.946600000000     0.370700000000     0.769900000000     0.0208617  
C        C      0.885600000000     0.420000000000     0.762100000000     0.0208617  
C        C      0.791000000000     0.375200000000     0.686200000000     0.0208617  
C        C      0.930500000000     0.094600000000     0.589700000000     0.0208617  
C        C      0.959300000000     0.074400000000     0.662200000000     0.0208617  
C        C      0.069600000000     0.104900000000     0.708400000000     0.0208617  
C        C      0.148100000000     0.155000000000     0.680300000000     0.0208617  
C        C      0.114500000000     0.174400000000     0.609500000000     0.0208617  
N        N      0.470000000000     0.364100000000     0.917700000000    -0.0975289  
N        N      0.391900000000     0.288300000000     0.920000000000    -0.0975289  
N        N      0.422500000000     0.291600000000     0.002200000000    -0.0975289  
N        N      0.522100000000     0.371100000000     0.055600000000    -0.0975289  
N        N      0.640100000000     0.567200000000     0.219800000000    -0.0975289  
N        N      0.663300000000     0.562100000000     0.299700000000    -0.0975289  
N        N      0.757400000000     0.554000000000     0.314400000000    -0.0975289  
N        N      0.797400000000     0.553400000000     0.246200000000    -0.0975289  
N        N      0.647800000000     0.512600000000     0.943600000000    -0.0975289  
N        N      0.814300000000     0.643300000000     0.107600000000    -0.0975289  
N        N      0.617200000000     0.532600000000     0.793800000000    -0.0975289  
N        N      0.869000000000     0.813100000000     0.024000000000    -0.0975289  
N        N      0.918800000000     0.468500000000     0.369600000000    -0.0975289  
N        N      0.898400000000     0.383700000000     0.301900000000    -0.0975289  
N        N      0.995200000000     0.380300000000     0.302700000000    -0.0975289  
N        N      0.080700000000     0.463400000000     0.371400000000    -0.0975289  
N        N      0.374700000000     0.685900000000     0.527800000000    -0.0975289  
N        N      0.437500000000     0.637300000000     0.534800000000    -0.0975289  
N        N      0.382400000000     0.563100000000     0.549300000000    -0.0975289  
N        N      0.281500000000     0.561300000000     0.550800000000    -0.0975289  
N        N      0.001200000000     0.642900000000     0.501300000000    -0.0975289  
N        N      0.221000000000     0.758200000000     0.608600000000    -0.0975289  
N        N      0.830400000000     0.671700000000     0.525200000000    -0.0975289  
N        N      0.250200000000     0.960000000000     0.705800000000    -0.0975289  
N        N      0.533000000000     0.926300000000     0.600400000000    -0.0975289  
N        N      0.637700000000     0.961300000000     0.657600000000    -0.0975289  
N        N      0.672500000000     0.055300000000     0.707100000000    -0.0975289  
N        N      0.591000000000     0.084000000000     0.681800000000    -0.0975289  
N        N      0.414100000000     0.212900000000     0.694600000000    -0.0975289  
N        N      0.487500000000     0.305000000000     0.719400000000    -0.0975289  
N        N      0.540300000000     0.309300000000     0.662100000000    -0.0975289  
N        N      0.503700000000     0.218400000000     0.597800000000    -0.0975289  
N        N      0.337600000000     0.893700000000     0.499300000000    -0.0975289  
N        N      0.252700000000     0.027200000000     0.514300000000    -0.0975289  
N        N      0.245100000000     0.714600000000     0.378800000000    -0.0975289  
N        N      0.994700000000     0.853200000000     0.436200000000    -0.0975289  
N        N      0.530000000000     0.635900000000     0.082300000000    -0.0975289  
N        N      0.608100000000     0.711700000000     0.080000000000    -0.0975289  
N        N      0.577500000000     0.708400000000     0.997800000000    -0.0975289  
N        N      0.477900000000     0.628900000000     0.944400000000    -0.0975289  
N        N      0.359900000000     0.432800000000     0.780200000000    -0.0975289  
N        N      0.336700000000     0.437900000000     0.700300000000    -0.0975289  
N        N      0.242600000000     0.446000000000     0.685600000000    -0.0975289  
N        N      0.202600000000     0.446600000000     0.753800000000    -0.0975289  
N        N      0.352200000000     0.487400000000     0.056400000000    -0.0975289  
N        N      0.185700000000     0.356700000000     0.892400000000    -0.0975289  
N        N      0.382800000000     0.467400000000     0.206200000000    -0.0975289  
N        N      0.131000000000     0.186900000000     0.976000000000    -0.0975289  
N        N      0.081200000000     0.531500000000     0.630400000000    -0.0975289  
N        N      0.101600000000     0.616300000000     0.698100000000    -0.0975289  
N        N      0.004800000000     0.619700000000     0.697300000000    -0.0975289  
N        N      0.919300000000     0.536600000000     0.628600000000    -0.0975289  
N        N      0.625300000000     0.314100000000     0.472200000000    -0.0975289  
N        N      0.562500000000     0.362700000000     0.465200000000    -0.0975289  
N        N      0.617600000000     0.436900000000     0.450700000000    -0.0975289  
N        N      0.718500000000     0.438700000000     0.449200000000    -0.0975289  
N        N      0.998800000000     0.357100000000     0.498700000000    -0.0975289  
N        N      0.779000000000     0.241800000000     0.391400000000    -0.0975289  
N        N      0.169600000000     0.328300000000     0.474800000000    -0.0975289  
N        N      0.749800000000     0.040000000000     0.294200000000    -0.0975289  
N        N      0.467000000000     0.073700000000     0.399600000000    -0.0975289  
N        N      0.362300000000     0.038700000000     0.342400000000    -0.0975289  
N        N      0.327500000000     0.944700000000     0.292900000000    -0.0975289  
N        N      0.409000000000     0.916000000000     0.318200000000    -0.0975289  
N        N      0.585900000000     0.787100000000     0.305400000000    -0.0975289  
N        N      0.512500000000     0.695000000000     0.280600000000    -0.0975289  
N        N      0.459700000000     0.690700000000     0.337900000000    -0.0975289  
N        N      0.496300000000     0.781600000000     0.402200000000    -0.0975289  
N        N      0.662400000000     0.106300000000     0.500700000000    -0.0975289  
N        N      0.747300000000     0.972800000000     0.485700000000    -0.0975289  
N        N      0.754900000000     0.285400000000     0.621200000000    -0.0975289  
N        N      0.005300000000     0.146800000000     0.563800000000    -0.0975289  


