data_QATHIE_original

_audit_creation_method RASPA-1.0
_audit_creation_date 2022-1-29
_audit_author_name 'Felipe Lopes de Oliveira <felipe.lopes.oliveira@ibm.com>'

_cell_length_a    9.3341
_cell_length_b    9.758
_cell_length_c    12.862
_cell_angle_alpha 111.83
_cell_angle_beta  104.59
_cell_angle_gamma 91.64
_cell_volume      1042.63

_symmetry_cell_setting          triclinic
_symmetry_space_group_name_Hall 'P 1'
_symmetry_space_group_name_H-M  'P 1'
_symmetry_Int_Tables_number     1

_symmetry_equiv_pos_as_xyz 'x,y,z'

loop_
_atom_site_label
_atom_site_type_symbol
_atom_site_fract_x
_atom_site_fract_y
_atom_site_fract_z
_atom_site_charge
Zn       Zn     0.344260000000     0.543850000000     0.721970000000     0.337865   
Zn       Zn     0.655740000000     0.456150000000     0.278030000000     0.337865   
H        H      0.928300000000     0.786000000000     0.316600000000     0.0844797  
H        H      0.127500000000     0.930200000000     0.861900000000     0.0844797  
H        H      0.213900000000     0.671700000000     0.068500000000     0.0844797  
H        H      0.926500000000     0.331100000000     0.806000000000     0.0844797  
H        H      0.355900000000     0.668100000000     0.545200000000     0.0844797  
H        H      0.230800000000     0.811000000000     0.454700000000     0.0844797  
H        H      0.902800000000     0.785300000000     0.597300000000     0.0844797  
H        H      0.035500000000     0.642100000000     0.683400000000     0.0844797  
H        H      0.458600000000     0.878300000000     0.832400000000     0.0844797  
H        H      0.677700000000     0.039600000000     0.918900000000     0.0844797  
H        H      0.897800000000     0.685200000000     0.851000000000     0.0844797  
H        H      0.674300000000     0.536300000000     0.773200000000     0.0844797  
H        H      0.071700000000     0.214000000000     0.683400000000     0.0844797  
H        H      0.872500000000     0.069800000000     0.138100000000     0.0844797  
H        H      0.786100000000     0.328300000000     0.931500000000     0.0844797  
H        H      0.073500000000     0.668900000000     0.194000000000     0.0844797  
H        H      0.644100000000     0.331900000000     0.454800000000     0.0844797  
H        H      0.769200000000     0.189000000000     0.545300000000     0.0844797  
H        H      0.097200000000     0.214700000000     0.402700000000     0.0844797  
H        H      0.964500000000     0.357900000000     0.316600000000     0.0844797  
H        H      0.541400000000     0.121700000000     0.167600000000     0.0844797  
H        H      0.322300000000     0.960400000000     0.081100000000     0.0844797  
H        H      0.102200000000     0.314800000000     0.149000000000     0.0844797  
H        H      0.325700000000     0.463700000000     0.226800000000     0.0844797  
C        C      0.172800000000     0.505800000000     0.842200000000     0.0199372  
C        C      0.085700000000     0.501600000000     0.926000000000     0.0199372  
C        C      0.128400000000     0.602700000000     0.041200000000     0.0199372  
C        C      0.956000000000     0.398300000000     0.883500000000     0.0199372  
C        C      0.264600000000     0.693900000000     0.557300000000     0.0199372  
C        C      0.189800000000     0.779900000000     0.502400000000     0.0199372  
C        C      0.052400000000     0.819500000000     0.519100000000     0.0199372  
C        C      0.995900000000     0.764700000000     0.586400000000     0.0199372  
C        C      0.076500000000     0.678800000000     0.638600000000     0.0199372  
C        C      0.969600000000     0.919800000000     0.465300000000     0.0199372  
C        C      0.548400000000     0.839000000000     0.837000000000     0.0199372  
C        C      0.679900000000     0.937300000000     0.888800000000     0.0199372  
C        C      0.815900000000     0.880400000000     0.895000000000     0.0199372  
C        C      0.810000000000     0.728000000000     0.849400000000     0.0199372  
C        C      0.674700000000     0.639000000000     0.801600000000     0.0199372  
C        C      0.979700000000     0.976900000000     0.937000000000     0.0199372  
C        C      0.827200000000     0.494200000000     0.157800000000     0.0199372  
C        C      0.914300000000     0.498400000000     0.074000000000     0.0199372  
C        C      0.871600000000     0.397300000000     0.958800000000     0.0199372  
C        C      0.044000000000     0.601700000000     0.116500000000     0.0199372  
C        C      0.735400000000     0.306100000000     0.442700000000     0.0199372  
C        C      0.810200000000     0.220100000000     0.497600000000     0.0199372  
C        C      0.947600000000     0.180500000000     0.480900000000     0.0199372  
C        C      0.004100000000     0.235300000000     0.413600000000     0.0199372  
C        C      0.923500000000     0.321200000000     0.361400000000     0.0199372  
C        C      0.030400000000     0.080200000000     0.534700000000     0.0199372  
C        C      0.451600000000     0.161000000000     0.163000000000     0.0199372  
C        C      0.320100000000     0.062700000000     0.111200000000     0.0199372  
C        C      0.184100000000     0.119600000000     0.105000000000     0.0199372  
C        C      0.190000000000     0.272000000000     0.150600000000     0.0199372  
C        C      0.325300000000     0.361000000000     0.198400000000     0.0199372  
C        C      0.020300000000     0.023100000000     0.063000000000     0.0199372  
N        N      0.211800000000     0.646800000000     0.626500000000    -0.169711   
N        N      0.543100000000     0.690900000000     0.793300000000    -0.169711   
N        N      0.788200000000     0.353200000000     0.373500000000    -0.169711   
N        N      0.456900000000     0.309100000000     0.206700000000    -0.169711   
O        O      0.130200000000     0.417800000000     0.737300000000    -0.332798   
O        O      0.287000000000     0.602600000000     0.878700000000    -0.332798   
O        O      0.957500000000     0.875700000000     0.349900000000    -0.332798   
O        O      0.082400000000     0.887500000000     0.890700000000    -0.332798   
O        O      0.869800000000     0.582200000000     0.262700000000    -0.332798   
O        O      0.713000000000     0.397400000000     0.121300000000    -0.332798   
O        O      0.042500000000     0.124300000000     0.650100000000    -0.332798   
O        O      0.917600000000     0.112500000000     0.109300000000    -0.332798   


