data_QAVWAN_original

_audit_creation_method RASPA-1.0
_audit_creation_date 2022-1-29
_audit_author_name 'Felipe Lopes de Oliveira <felipe.lopes.oliveira@ibm.com>'

_cell_length_a    13.0133
_cell_length_b    13.0133
_cell_length_c    13.922
_cell_angle_alpha 106.373
_cell_angle_beta  106.373
_cell_angle_gamma 91.2734
_cell_volume      2157.01

_symmetry_cell_setting          triclinic
_symmetry_space_group_name_Hall 'P 1'
_symmetry_space_group_name_H-M  'P 1'
_symmetry_Int_Tables_number     1

_symmetry_equiv_pos_as_xyz 'x,y,z'

loop_
_atom_site_label
_atom_site_type_symbol
_atom_site_fract_x
_atom_site_fract_y
_atom_site_fract_z
_atom_site_charge
Zn       Zn     0.187500000000     0.866780000000     0.866620000000     0.460828   
Zn       Zn     0.133220000000     0.812500000000     0.633380000000     0.460828   
Zn       Zn     0.812500000000     0.133220000000     0.133380000000     0.460828   
Zn       Zn     0.866780000000     0.187500000000     0.366620000000     0.460828   
H        H      0.537100000000     0.899300000000     0.938700000000     0.102662   
H        H      0.715400000000     0.899200000000     0.951200000000     0.102662   
H        H      0.455700000000     0.807700000000     0.622500000000     0.102662   
H        H      0.858900000000     0.860900000000     0.861500000000     0.102662   
H        H      0.047000000000     0.924000000000     0.996700000000     0.102662   
H        H      0.019600000000     0.910600000000     0.148400000000     0.102662   
H        H      0.309300000000     0.798700000000     0.220800000000     0.102662   
H        H      0.406700000000     0.872700000000     0.050500000000     0.102662   
H        H      0.416700000000     0.779500000000     0.106000000000     0.102662   
H        H      0.349900000000     0.753300000000     0.984600000000     0.102662   
H        H      0.780000000000     0.785800000000     0.546400000000     0.102662   
H        H      0.598300000000     0.786500000000     0.535500000000     0.102662   
H        H      0.100700000000     0.462900000000     0.561300000000     0.102662   
H        H      0.100800000000     0.284600000000     0.548800000000     0.102662   
H        H      0.192300000000     0.544300000000     0.877500000000     0.102662   
H        H      0.139100000000     0.141100000000     0.638500000000     0.102662   
H        H      0.076000000000     0.953000000000     0.503300000000     0.102662   
H        H      0.089400000000     0.980400000000     0.351600000000     0.102662   
H        H      0.201300000000     0.690700000000     0.279200000000     0.102662   
H        H      0.127300000000     0.593300000000     0.449500000000     0.102662   
H        H      0.220500000000     0.583300000000     0.394000000000     0.102662   
H        H      0.246700000000     0.650100000000     0.515400000000     0.102662   
H        H      0.214200000000     0.220000000000     0.953600000000     0.102662   
H        H      0.213500000000     0.401700000000     0.964500000000     0.102662   
H        H      0.462900000000     0.100700000000     0.061300000000     0.102662   
H        H      0.284600000000     0.100800000000     0.048800000000     0.102662   
H        H      0.544300000000     0.192300000000     0.377500000000     0.102662   
H        H      0.141100000000     0.139100000000     0.138500000000     0.102662   
H        H      0.953000000000     0.076000000000     0.003300000000     0.102662   
H        H      0.980400000000     0.089400000000     0.851600000000     0.102662   
H        H      0.690700000000     0.201300000000     0.779200000000     0.102662   
H        H      0.593300000000     0.127300000000     0.949500000000     0.102662   
H        H      0.583300000000     0.220500000000     0.894000000000     0.102662   
H        H      0.650100000000     0.246700000000     0.015400000000     0.102662   
H        H      0.220000000000     0.214200000000     0.453600000000     0.102662   
H        H      0.401700000000     0.213500000000     0.464500000000     0.102662   
H        H      0.899300000000     0.537100000000     0.438700000000     0.102662   
H        H      0.899200000000     0.715400000000     0.451200000000     0.102662   
H        H      0.807700000000     0.455700000000     0.122500000000     0.102662   
H        H      0.860900000000     0.858900000000     0.361500000000     0.102662   
H        H      0.924000000000     0.047000000000     0.496700000000     0.102662   
H        H      0.910600000000     0.019600000000     0.648400000000     0.102662   
H        H      0.798700000000     0.309300000000     0.720800000000     0.102662   
H        H      0.872700000000     0.406700000000     0.550500000000     0.102662   
H        H      0.779500000000     0.416700000000     0.606000000000     0.102662   
H        H      0.753300000000     0.349900000000     0.484600000000     0.102662   
H        H      0.785800000000     0.780000000000     0.046400000000     0.102662   
H        H      0.786500000000     0.598300000000     0.035500000000     0.102662   
C        C      0.361200000000     0.849800000000     0.770700000000    -0.0165377  
C        C      0.477900000000     0.851700000000     0.777800000000    -0.0165377  
C        C      0.558100000000     0.879900000000     0.876400000000    -0.0165377  
C        C      0.663200000000     0.879600000000     0.883900000000    -0.0165377  
C        C      0.509100000000     0.825300000000     0.689000000000    -0.0165377  
C        C      0.697100000000     0.850500000000     0.792500000000    -0.0165377  
C        C      0.805400000000     0.848000000000     0.795500000000    -0.0165377  
C        C      0.101200000000     0.898200000000     0.043000000000    -0.0165377  
C        C      0.084200000000     0.890600000000     0.132800000000    -0.0165377  
C        C      0.162600000000     0.853000000000     0.201400000000    -0.0165377  
C        C      0.254900000000     0.825300000000     0.175500000000    -0.0165377  
C        C      0.268900000000     0.836100000000     0.083300000000    -0.0165377  
C        C      0.369300000000     0.807900000000     0.053500000000    -0.0165377  
C        C      0.836900000000     0.827500000000     0.706700000000    -0.0165377  
C        C      0.954500000000     0.830700000000     0.714200000000    -0.0165377  
C        C      0.758900000000     0.802500000000     0.608600000000    -0.0165377  
C        C      0.650800000000     0.802000000000     0.602300000000    -0.0165377  
C        C      0.617300000000     0.823900000000     0.693300000000    -0.0165377  
C        C      0.150200000000     0.638800000000     0.729300000000    -0.0165377  
C        C      0.148300000000     0.522100000000     0.722200000000    -0.0165377  
C        C      0.120100000000     0.441900000000     0.623600000000    -0.0165377  
C        C      0.120400000000     0.336800000000     0.616100000000    -0.0165377  
C        C      0.174700000000     0.490900000000     0.811000000000    -0.0165377  
C        C      0.149500000000     0.302900000000     0.707500000000    -0.0165377  
C        C      0.152000000000     0.194600000000     0.704500000000    -0.0165377  
C        C      0.101800000000     0.898800000000     0.457000000000    -0.0165377  
C        C      0.109400000000     0.915800000000     0.367200000000    -0.0165377  
C        C      0.147000000000     0.837400000000     0.298600000000    -0.0165377  
C        C      0.174700000000     0.745100000000     0.324500000000    -0.0165377  
C        C      0.163900000000     0.731100000000     0.416700000000    -0.0165377  
C        C      0.192100000000     0.630700000000     0.446500000000    -0.0165377  
C        C      0.172500000000     0.163100000000     0.793300000000    -0.0165377  
C        C      0.169300000000     0.045500000000     0.785800000000    -0.0165377  
C        C      0.197500000000     0.241100000000     0.891400000000    -0.0165377  
C        C      0.198000000000     0.349200000000     0.897700000000    -0.0165377  
C        C      0.176100000000     0.382700000000     0.806700000000    -0.0165377  
C        C      0.638800000000     0.150200000000     0.229300000000    -0.0165377  
C        C      0.522100000000     0.148300000000     0.222200000000    -0.0165377  
C        C      0.441900000000     0.120100000000     0.123600000000    -0.0165377  
C        C      0.336800000000     0.120400000000     0.116100000000    -0.0165377  
C        C      0.490900000000     0.174700000000     0.311000000000    -0.0165377  
C        C      0.302900000000     0.149500000000     0.207500000000    -0.0165377  
C        C      0.194600000000     0.152000000000     0.204500000000    -0.0165377  
C        C      0.898800000000     0.101800000000     0.957000000000    -0.0165377  
C        C      0.915800000000     0.109400000000     0.867200000000    -0.0165377  
C        C      0.837400000000     0.147000000000     0.798600000000    -0.0165377  
C        C      0.745100000000     0.174700000000     0.824500000000    -0.0165377  
C        C      0.731100000000     0.163900000000     0.916700000000    -0.0165377  
C        C      0.630700000000     0.192100000000     0.946500000000    -0.0165377  
C        C      0.163100000000     0.172500000000     0.293300000000    -0.0165377  
C        C      0.045500000000     0.169300000000     0.285800000000    -0.0165377  
C        C      0.241100000000     0.197500000000     0.391400000000    -0.0165377  
C        C      0.349200000000     0.198000000000     0.397700000000    -0.0165377  
C        C      0.382700000000     0.176100000000     0.306700000000    -0.0165377  
C        C      0.849800000000     0.361200000000     0.270700000000    -0.0165377  
C        C      0.851700000000     0.477900000000     0.277800000000    -0.0165377  
C        C      0.879900000000     0.558100000000     0.376400000000    -0.0165377  
C        C      0.879600000000     0.663200000000     0.383900000000    -0.0165377  
C        C      0.825300000000     0.509100000000     0.189000000000    -0.0165377  
C        C      0.850500000000     0.697100000000     0.292500000000    -0.0165377  
C        C      0.848000000000     0.805400000000     0.295500000000    -0.0165377  
C        C      0.898200000000     0.101200000000     0.543000000000    -0.0165377  
C        C      0.890600000000     0.084200000000     0.632800000000    -0.0165377  
C        C      0.853000000000     0.162600000000     0.701400000000    -0.0165377  
C        C      0.825300000000     0.254900000000     0.675500000000    -0.0165377  
C        C      0.836100000000     0.268900000000     0.583300000000    -0.0165377  
C        C      0.807900000000     0.369300000000     0.553500000000    -0.0165377  
C        C      0.827500000000     0.836900000000     0.206700000000    -0.0165377  
C        C      0.830700000000     0.954500000000     0.214200000000    -0.0165377  
C        C      0.802500000000     0.758900000000     0.108600000000    -0.0165377  
C        C      0.802000000000     0.650800000000     0.102300000000    -0.0165377  
C        C      0.823900000000     0.617300000000     0.193300000000    -0.0165377  
N        N      0.191100000000     0.870900000000     0.015900000000    -0.202863   
N        N      0.129100000000     0.808900000000     0.484100000000    -0.202863   
N        N      0.808900000000     0.129100000000     0.984100000000    -0.202863   
N        N      0.870900000000     0.191100000000     0.515900000000    -0.202863   
O        O      0.336510000000     0.888890000000     0.854600000000    -0.298058   
O        O      0.294800000000     0.808000000000     0.681100000000    -0.298058   
O        O      0.977680000000     0.830320000000     0.631900000000    -0.298058   
O        O      0.021200000000     0.835600000000     0.801200000000    -0.298058   
O        O      0.111110000000     0.663490000000     0.645400000000    -0.298058   
O        O      0.192000000000     0.705200000000     0.818900000000    -0.298058   
O        O      0.169680000000     0.022320000000     0.868100000000    -0.298058   
O        O      0.164400000000     0.978800000000     0.698800000000    -0.298058   
O        O      0.663490000000     0.111110000000     0.145400000000    -0.298058   
O        O      0.705200000000     0.192000000000     0.318900000000    -0.298058   
O        O      0.022320000000     0.169680000000     0.368100000000    -0.298058   
O        O      0.978800000000     0.164400000000     0.198800000000    -0.298058   
O        O      0.888890000000     0.336510000000     0.354600000000    -0.298058   
O        O      0.808000000000     0.294800000000     0.181100000000    -0.298058   
O        O      0.830320000000     0.977680000000     0.131900000000    -0.298058   
O        O      0.835600000000     0.021200000000     0.301200000000    -0.298058   


