data_QEDZEG_original

_audit_creation_method RASPA-1.0
_audit_creation_date 2022-1-31
_audit_author_name 'Felipe Lopes de Oliveira <felipe.lopes.oliveira@ibm.com>'

_cell_length_a    6.334
_cell_length_b    20.49
_cell_length_c    28.0234
_cell_angle_alpha 99.1729
_cell_angle_beta  90
_cell_angle_gamma 90
_cell_volume      3590.47

_symmetry_cell_setting          triclinic
_symmetry_space_group_name_Hall 'P 1'
_symmetry_space_group_name_H-M  'P 1'
_symmetry_Int_Tables_number     1

_symmetry_equiv_pos_as_xyz 'x,y,z'

loop_
_atom_site_label
_atom_site_type_symbol
_atom_site_fract_x
_atom_site_fract_y
_atom_site_fract_z
_atom_site_charge
Zn       Zn     0.248800000000     0.010990000000     0.023470000000     0.500693   
Zn       Zn     0.748800000000     0.510990000000     0.523470000000     0.500693   
Zn       Zn     0.248800000000     0.489010000000     0.976530000000     0.500693   
Zn       Zn     0.748800000000     0.989010000000     0.476530000000     0.500693   
Zn       Zn     0.751200000000     0.989010000000     0.976530000000     0.500693   
Zn       Zn     0.251200000000     0.489010000000     0.476530000000     0.500693   
Zn       Zn     0.751200000000     0.510990000000     0.023470000000     0.500693   
Zn       Zn     0.251200000000     0.010990000000     0.523470000000     0.500693   
H        H      0.646500000000     0.082800000000     0.869800000000     0.0545665  
H        H      0.146500000000     0.582800000000     0.369800000000     0.0545665  
H        H      0.646500000000     0.417200000000     0.130200000000     0.0545665  
H        H      0.146500000000     0.917200000000     0.630200000000     0.0545665  
H        H      0.353500000000     0.917200000000     0.130200000000     0.0545665  
H        H      0.853500000000     0.417200000000     0.630200000000     0.0545665  
H        H      0.353500000000     0.582800000000     0.869800000000     0.0545665  
H        H      0.853500000000     0.082800000000     0.369800000000     0.0545665  
H        H      0.613700000000     0.149500000000     0.812600000000     0.0545665  
H        H      0.113700000000     0.649500000000     0.312600000000     0.0545665  
H        H      0.613700000000     0.350500000000     0.187400000000     0.0545665  
H        H      0.113700000000     0.850500000000     0.687400000000     0.0545665  
H        H      0.386300000000     0.850500000000     0.187400000000     0.0545665  
H        H      0.886300000000     0.350500000000     0.687400000000     0.0545665  
H        H      0.386300000000     0.649500000000     0.812600000000     0.0545665  
H        H      0.886300000000     0.149500000000     0.312600000000     0.0545665  
H        H      0.009600000000     0.191100000000     0.860500000000     0.0545665  
H        H      0.509600000000     0.691100000000     0.360500000000     0.0545665  
H        H      0.009600000000     0.308900000000     0.139500000000     0.0545665  
H        H      0.509600000000     0.808900000000     0.639500000000     0.0545665  
H        H      0.990400000000     0.808900000000     0.139500000000     0.0545665  
H        H      0.490400000000     0.308900000000     0.639500000000     0.0545665  
H        H      0.990400000000     0.691100000000     0.860500000000     0.0545665  
H        H      0.490400000000     0.191100000000     0.360500000000     0.0545665  
H        H      0.068800000000     0.126100000000     0.921400000000     0.0545665  
H        H      0.568800000000     0.626100000000     0.421400000000     0.0545665  
H        H      0.068800000000     0.373900000000     0.078600000000     0.0545665  
H        H      0.568800000000     0.873900000000     0.578600000000     0.0545665  
H        H      0.931200000000     0.873900000000     0.078600000000     0.0545665  
H        H      0.431200000000     0.373900000000     0.578600000000     0.0545665  
H        H      0.931200000000     0.626100000000     0.921400000000     0.0545665  
H        H      0.431200000000     0.126100000000     0.421400000000     0.0545665  
H        H      0.505400000000     0.358500000000     0.943700000000     0.0545665  
H        H      0.005400000000     0.858500000000     0.443700000000     0.0545665  
H        H      0.505400000000     0.141500000000     0.056300000000     0.0545665  
H        H      0.005400000000     0.641500000000     0.556300000000     0.0545665  
H        H      0.494600000000     0.641500000000     0.056300000000     0.0545665  
H        H      0.994600000000     0.141500000000     0.556300000000     0.0545665  
H        H      0.494600000000     0.858500000000     0.943700000000     0.0545665  
H        H      0.994600000000     0.358500000000     0.443700000000     0.0545665  
H        H      0.324100000000     0.301000000000     0.879700000000     0.0545665  
H        H      0.824100000000     0.801000000000     0.379700000000     0.0545665  
H        H      0.324100000000     0.199000000000     0.120300000000     0.0545665  
H        H      0.824100000000     0.699000000000     0.620300000000     0.0545665  
H        H      0.675900000000     0.699000000000     0.120300000000     0.0545665  
H        H      0.175900000000     0.199000000000     0.620300000000     0.0545665  
H        H      0.675900000000     0.801000000000     0.879700000000     0.0545665  
H        H      0.175900000000     0.301000000000     0.379700000000     0.0545665  
H        H      0.063600000000     0.154400000000     0.754200000000     0.0545665  
H        H      0.563600000000     0.654400000000     0.254200000000     0.0545665  
H        H      0.063600000000     0.345600000000     0.245800000000     0.0545665  
H        H      0.563600000000     0.845600000000     0.745800000000     0.0545665  
H        H      0.936400000000     0.845600000000     0.245800000000     0.0545665  
H        H      0.436400000000     0.345600000000     0.745800000000     0.0545665  
H        H      0.936400000000     0.654400000000     0.754200000000     0.0545665  
H        H      0.436400000000     0.154400000000     0.254200000000     0.0545665  
H        H      0.991400000000     0.376300000000     0.849100000000     0.0545665  
H        H      0.491400000000     0.876300000000     0.349100000000     0.0545665  
H        H      0.991400000000     0.123700000000     0.150900000000     0.0545665  
H        H      0.491400000000     0.623700000000     0.650900000000     0.0545665  
H        H      0.008600000000     0.623700000000     0.150900000000     0.0545665  
H        H      0.508600000000     0.123700000000     0.650900000000     0.0545665  
H        H      0.008600000000     0.876300000000     0.849100000000     0.0545665  
H        H      0.508600000000     0.376300000000     0.349100000000     0.0545665  
H        H      0.792100000000     0.321500000000     0.787300000000     0.0545665  
H        H      0.292100000000     0.821500000000     0.287300000000     0.0545665  
H        H      0.792100000000     0.178500000000     0.212700000000     0.0545665  
H        H      0.292100000000     0.678500000000     0.712700000000     0.0545665  
H        H      0.207900000000     0.678500000000     0.212700000000     0.0545665  
H        H      0.707900000000     0.178500000000     0.712700000000     0.0545665  
H        H      0.207900000000     0.821500000000     0.787300000000     0.0545665  
H        H      0.707900000000     0.321500000000     0.287300000000     0.0545665  
C        C      0.519000000000     0.106900000000     0.868400000000     0.0131996  
C        C      0.019000000000     0.606900000000     0.368400000000     0.0131996  
C        C      0.519000000000     0.393100000000     0.131600000000     0.0131996  
C        C      0.019000000000     0.893100000000     0.631600000000     0.0131996  
C        C      0.481000000000     0.893100000000     0.131600000000     0.0131996  
C        C      0.981000000000     0.393100000000     0.631600000000     0.0131996  
C        C      0.481000000000     0.606900000000     0.868400000000     0.0131996  
C        C      0.981000000000     0.106900000000     0.368400000000     0.0131996  
C        C      0.499000000000     0.145300000000     0.833800000000     0.0131996  
C        C      0.999000000000     0.645300000000     0.333800000000     0.0131996  
C        C      0.499000000000     0.354700000000     0.166200000000     0.0131996  
C        C      0.999000000000     0.854700000000     0.666200000000     0.0131996  
C        C      0.501000000000     0.854700000000     0.166200000000     0.0131996  
C        C      0.001000000000     0.354700000000     0.666200000000     0.0131996  
C        C      0.501000000000     0.645300000000     0.833800000000     0.0131996  
C        C      0.001000000000     0.145300000000     0.333800000000     0.0131996  
C        C      0.143000000000     0.170500000000     0.862300000000     0.0131996  
C        C      0.643000000000     0.670500000000     0.362300000000     0.0131996  
C        C      0.143000000000     0.329500000000     0.137700000000     0.0131996  
C        C      0.643000000000     0.829500000000     0.637700000000     0.0131996  
C        C      0.857000000000     0.829500000000     0.137700000000     0.0131996  
C        C      0.357000000000     0.329500000000     0.637700000000     0.0131996  
C        C      0.857000000000     0.670500000000     0.862300000000     0.0131996  
C        C      0.357000000000     0.170500000000     0.362300000000     0.0131996  
C        C      0.178000000000     0.131000000000     0.899000000000     0.0131996  
C        C      0.678000000000     0.631000000000     0.399000000000     0.0131996  
C        C      0.178000000000     0.369000000000     0.101000000000     0.0131996  
C        C      0.678000000000     0.869000000000     0.601000000000     0.0131996  
C        C      0.822000000000     0.869000000000     0.101000000000     0.0131996  
C        C      0.322000000000     0.369000000000     0.601000000000     0.0131996  
C        C      0.822000000000     0.631000000000     0.899000000000     0.0131996  
C        C      0.322000000000     0.131000000000     0.399000000000     0.0131996  
C        C      0.272000000000     0.216900000000     0.791100000000     0.0131996  
C        C      0.772000000000     0.716900000000     0.291100000000     0.0131996  
C        C      0.272000000000     0.283100000000     0.208900000000     0.0131996  
C        C      0.772000000000     0.783100000000     0.708900000000     0.0131996  
C        C      0.728000000000     0.783100000000     0.208900000000     0.0131996  
C        C      0.228000000000     0.283100000000     0.708900000000     0.0131996  
C        C      0.728000000000     0.716900000000     0.791100000000     0.0131996  
C        C      0.228000000000     0.216900000000     0.291100000000     0.0131996  
C        C      0.564000000000     0.350600000000     0.912100000000     0.0131996  
C        C      0.064000000000     0.850600000000     0.412100000000     0.0131996  
C        C      0.564000000000     0.149400000000     0.087900000000     0.0131996  
C        C      0.064000000000     0.649400000000     0.587900000000     0.0131996  
C        C      0.436000000000     0.649400000000     0.087900000000     0.0131996  
C        C      0.936000000000     0.149400000000     0.587900000000     0.0131996  
C        C      0.436000000000     0.850600000000     0.912100000000     0.0131996  
C        C      0.936000000000     0.350600000000     0.412100000000     0.0131996  
C        C      0.401000000000     0.060000000000     0.940500000000     0.0131996  
C        C      0.901000000000     0.560000000000     0.440500000000     0.0131996  
C        C      0.401000000000     0.440000000000     0.059500000000     0.0131996  
C        C      0.901000000000     0.940000000000     0.559500000000     0.0131996  
C        C      0.599000000000     0.940000000000     0.059500000000     0.0131996  
C        C      0.099000000000     0.440000000000     0.559500000000     0.0131996  
C        C      0.599000000000     0.560000000000     0.940500000000     0.0131996  
C        C      0.099000000000     0.060000000000     0.440500000000     0.0131996  
C        C      0.363000000000     0.100800000000     0.902100000000     0.0131996  
C        C      0.863000000000     0.600800000000     0.402100000000     0.0131996  
C        C      0.363000000000     0.399200000000     0.097900000000     0.0131996  
C        C      0.863000000000     0.899200000000     0.597900000000     0.0131996  
C        C      0.637000000000     0.899200000000     0.097900000000     0.0131996  
C        C      0.137000000000     0.399200000000     0.597900000000     0.0131996  
C        C      0.637000000000     0.600800000000     0.902100000000     0.0131996  
C        C      0.137000000000     0.100800000000     0.402100000000     0.0131996  
C        C      0.887000000000     0.416900000000     0.939600000000     0.0131996  
C        C      0.387000000000     0.916900000000     0.439600000000     0.0131996  
C        C      0.887000000000     0.083100000000     0.060400000000     0.0131996  
C        C      0.387000000000     0.583100000000     0.560400000000     0.0131996  
C        C      0.113000000000     0.583100000000     0.060400000000     0.0131996  
C        C      0.613000000000     0.083100000000     0.560400000000     0.0131996  
C        C      0.113000000000     0.916900000000     0.939600000000     0.0131996  
C        C      0.613000000000     0.416900000000     0.439600000000     0.0131996  
C        C      0.527000000000     0.307000000000     0.829200000000     0.0131996  
C        C      0.027000000000     0.807000000000     0.329200000000     0.0131996  
C        C      0.527000000000     0.193000000000     0.170800000000     0.0131996  
C        C      0.027000000000     0.693000000000     0.670800000000     0.0131996  
C        C      0.473000000000     0.693000000000     0.170800000000     0.0131996  
C        C      0.973000000000     0.193000000000     0.670800000000     0.0131996  
C        C      0.473000000000     0.807000000000     0.829200000000     0.0131996  
C        C      0.973000000000     0.307000000000     0.329200000000     0.0131996  
C        C      0.460000000000     0.317800000000     0.873700000000     0.0131996  
C        C      0.960000000000     0.817800000000     0.373700000000     0.0131996  
C        C      0.460000000000     0.182200000000     0.126300000000     0.0131996  
C        C      0.960000000000     0.682200000000     0.626300000000     0.0131996  
C        C      0.540000000000     0.682200000000     0.126300000000     0.0131996  
C        C      0.040000000000     0.182200000000     0.626300000000     0.0131996  
C        C      0.540000000000     0.817800000000     0.873700000000     0.0131996  
C        C      0.040000000000     0.317800000000     0.373700000000     0.0131996  
C        C      0.768000000000     0.372500000000     0.901600000000     0.0131996  
C        C      0.268000000000     0.872500000000     0.401600000000     0.0131996  
C        C      0.768000000000     0.127500000000     0.098400000000     0.0131996  
C        C      0.268000000000     0.627500000000     0.598400000000     0.0131996  
C        C      0.232000000000     0.627500000000     0.098400000000     0.0131996  
C        C      0.732000000000     0.127500000000     0.598400000000     0.0131996  
C        C      0.232000000000     0.872500000000     0.901600000000     0.0131996  
C        C      0.732000000000     0.372500000000     0.401600000000     0.0131996  
C        C      0.301000000000     0.180200000000     0.828900000000     0.0131996  
C        C      0.801000000000     0.680200000000     0.328900000000     0.0131996  
C        C      0.301000000000     0.319800000000     0.171100000000     0.0131996  
C        C      0.801000000000     0.819800000000     0.671100000000     0.0131996  
C        C      0.699000000000     0.819800000000     0.171100000000     0.0131996  
C        C      0.199000000000     0.319800000000     0.671100000000     0.0131996  
C        C      0.699000000000     0.680200000000     0.828900000000     0.0131996  
C        C      0.199000000000     0.180200000000     0.328900000000     0.0131996  
C        C      0.139000000000     0.194100000000     0.753200000000     0.0131996  
C        C      0.639000000000     0.694100000000     0.253200000000     0.0131996  
C        C      0.139000000000     0.305900000000     0.246800000000     0.0131996  
C        C      0.639000000000     0.805900000000     0.746800000000     0.0131996  
C        C      0.861000000000     0.805900000000     0.246800000000     0.0131996  
C        C      0.361000000000     0.305900000000     0.746800000000     0.0131996  
C        C      0.861000000000     0.694100000000     0.753200000000     0.0131996  
C        C      0.361000000000     0.194100000000     0.253200000000     0.0131996  
C        C      0.390000000000     0.273400000000     0.786600000000     0.0131996  
C        C      0.890000000000     0.773400000000     0.286600000000     0.0131996  
C        C      0.390000000000     0.226600000000     0.213400000000     0.0131996  
C        C      0.890000000000     0.726600000000     0.713400000000     0.0131996  
C        C      0.610000000000     0.726600000000     0.213400000000     0.0131996  
C        C      0.110000000000     0.226600000000     0.713400000000     0.0131996  
C        C      0.610000000000     0.773400000000     0.786600000000     0.0131996  
C        C      0.110000000000     0.273400000000     0.286600000000     0.0131996  
C        C      0.853000000000     0.361300000000     0.855000000000     0.0131996  
C        C      0.353000000000     0.861300000000     0.355000000000     0.0131996  
C        C      0.853000000000     0.138700000000     0.145000000000     0.0131996  
C        C      0.353000000000     0.638700000000     0.645000000000     0.0131996  
C        C      0.147000000000     0.638700000000     0.145000000000     0.0131996  
C        C      0.647000000000     0.138700000000     0.645000000000     0.0131996  
C        C      0.147000000000     0.861300000000     0.855000000000     0.0131996  
C        C      0.647000000000     0.361300000000     0.355000000000     0.0131996  
C        C      0.738000000000     0.329500000000     0.819300000000     0.0131996  
C        C      0.238000000000     0.829500000000     0.319300000000     0.0131996  
C        C      0.738000000000     0.170500000000     0.180700000000     0.0131996  
C        C      0.238000000000     0.670500000000     0.680700000000     0.0131996  
C        C      0.262000000000     0.670500000000     0.180700000000     0.0131996  
C        C      0.762000000000     0.170500000000     0.680700000000     0.0131996  
C        C      0.262000000000     0.829500000000     0.819300000000     0.0131996  
C        C      0.762000000000     0.329500000000     0.319300000000     0.0131996  
O        O      0.281700000000     0.070600000000     0.978000000000    -0.304046   
O        O      0.781700000000     0.570600000000     0.478000000000    -0.304046   
O        O      0.281700000000     0.429400000000     0.022000000000    -0.304046   
O        O      0.781700000000     0.929400000000     0.522000000000    -0.304046   
O        O      0.718300000000     0.929400000000     0.022000000000    -0.304046   
O        O      0.218300000000     0.429400000000     0.522000000000    -0.304046   
O        O      0.718300000000     0.570600000000     0.978000000000    -0.304046   
O        O      0.218300000000     0.070600000000     0.478000000000    -0.304046   
O        O      0.803300000000     0.427900000000     0.981700000000    -0.304046   
O        O      0.303300000000     0.927900000000     0.481700000000    -0.304046   
O        O      0.803300000000     0.072100000000     0.018300000000    -0.304046   
O        O      0.303300000000     0.572100000000     0.518300000000    -0.304046   
O        O      0.196700000000     0.572100000000     0.018300000000    -0.304046   
O        O      0.696700000000     0.072100000000     0.518300000000    -0.304046   
O        O      0.196700000000     0.927900000000     0.981700000000    -0.304046   
O        O      0.696700000000     0.427900000000     0.481700000000    -0.304046   
O        O      0.548900000000     0.017000000000     0.933300000000    -0.304046   
O        O      0.048900000000     0.517000000000     0.433300000000    -0.304046   
O        O      0.548900000000     0.483000000000     0.066700000000    -0.304046   
O        O      0.048900000000     0.983000000000     0.566700000000    -0.304046   
O        O      0.451100000000     0.983000000000     0.066700000000    -0.304046   
O        O      0.951100000000     0.483000000000     0.566700000000    -0.304046   
O        O      0.451100000000     0.517000000000     0.933300000000    -0.304046   
O        O      0.951100000000     0.017000000000     0.433300000000    -0.304046   
O        O      0.056800000000     0.444000000000     0.929700000000    -0.304046   
O        O      0.556800000000     0.944000000000     0.429700000000    -0.304046   
O        O      0.056800000000     0.056000000000     0.070300000000    -0.304046   
O        O      0.556800000000     0.556000000000     0.570300000000    -0.304046   
O        O      0.943200000000     0.556000000000     0.070300000000    -0.304046   
O        O      0.443200000000     0.056000000000     0.570300000000    -0.304046   
O        O      0.943200000000     0.944000000000     0.929700000000    -0.304046   
O        O      0.443200000000     0.444000000000     0.429700000000    -0.304046   


