data_QIFLIC_original

_audit_creation_method RASPA-1.0
_audit_creation_date 2022-1-31
_audit_author_name 'Felipe Lopes de Oliveira <felipe.lopes.oliveira@ibm.com>'

_cell_length_a    12.5223
_cell_length_b    12.5223
_cell_length_c    15.7383
_cell_angle_alpha 113.442
_cell_angle_beta  113.442
_cell_angle_gamma 90.0001
_cell_volume      2040.27

_symmetry_cell_setting          triclinic
_symmetry_space_group_name_Hall 'P 1'
_symmetry_space_group_name_H-M  'P 1'
_symmetry_Int_Tables_number     1

_symmetry_equiv_pos_as_xyz 'x,y,z'

loop_
_atom_site_label
_atom_site_type_symbol
_atom_site_fract_x
_atom_site_fract_y
_atom_site_fract_z
_atom_site_charge
Zn       Zn     0.875090000000     0.395600000000     0.374920000000     0.392844   
Zn       Zn     0.499830000000     0.979320000000     0.374920000000     0.392844   
Zn       Zn     0.395600000000     0.499830000000     0.374920000000     0.392844   
Zn       Zn     0.979320000000     0.875090000000     0.374920000000     0.392844   
Zn       Zn     0.124910000000     0.604400000000     0.625080000000     0.392844   
Zn       Zn     0.500170000000     0.020680000000     0.625080000000     0.392844   
Zn       Zn     0.604400000000     0.500170000000     0.625080000000     0.392844   
Zn       Zn     0.020680000000     0.124910000000     0.625080000000     0.392844   
H        H      0.749000000000     0.999900000000     0.154600000000     0.0966029  
H        H      0.914900000000     0.193300000000     0.443800000000     0.0966029  
H        H      0.164600000000     0.386500000000     0.788000000000     0.0966029  
H        H      0.181800000000     0.507300000000     0.788600000000     0.0966029  
H        H      0.405600000000     0.154700000000     0.154600000000     0.0966029  
H        H      0.528900000000     0.250500000000     0.443800000000     0.0966029  
H        H      0.623400000000     0.401500000000     0.788000000000     0.0966029  
H        H      0.606800000000     0.281300000000     0.788600000000     0.0966029  
H        H      0.999900000000     0.405600000000     0.154600000000     0.0966029  
H        H      0.193300000000     0.528900000000     0.443800000000     0.0966029  
H        H      0.386500000000     0.623400000000     0.788000000000     0.0966029  
H        H      0.507300000000     0.606800000000     0.788600000000     0.0966029  
H        H      0.154700000000     0.749000000000     0.154600000000     0.0966029  
H        H      0.250500000000     0.914900000000     0.443800000000     0.0966029  
H        H      0.401500000000     0.164600000000     0.788000000000     0.0966029  
H        H      0.281300000000     0.181800000000     0.788600000000     0.0966029  
H        H      0.251000000000     0.000100000000     0.845400000000     0.0966029  
H        H      0.085100000000     0.806700000000     0.556200000000     0.0966029  
H        H      0.835400000000     0.613500000000     0.212000000000     0.0966029  
H        H      0.818200000000     0.492700000000     0.211400000000     0.0966029  
H        H      0.594400000000     0.845300000000     0.845400000000     0.0966029  
H        H      0.471100000000     0.749500000000     0.556200000000     0.0966029  
H        H      0.376600000000     0.598500000000     0.212000000000     0.0966029  
H        H      0.393200000000     0.718700000000     0.211400000000     0.0966029  
H        H      0.000100000000     0.594400000000     0.845400000000     0.0966029  
H        H      0.806700000000     0.471100000000     0.556200000000     0.0966029  
H        H      0.613500000000     0.376600000000     0.212000000000     0.0966029  
H        H      0.492700000000     0.393200000000     0.211400000000     0.0966029  
H        H      0.845300000000     0.251000000000     0.845400000000     0.0966029  
H        H      0.749500000000     0.085100000000     0.556200000000     0.0966029  
H        H      0.598500000000     0.835400000000     0.212000000000     0.0966029  
H        H      0.718700000000     0.818200000000     0.211400000000     0.0966029  
H        H      0.644800000000     0.831400000000     0.000000000000     0.0966029  
H        H      0.680500000000     0.201900000000     0.000000000000     0.0966029  
H        H      0.355200000000     0.168600000000     0.000000000000     0.0966029  
H        H      0.319500000000     0.798100000000     0.000000000000     0.0966029  
H        H      0.831400000000     0.355200000000     0.000000000000     0.0966029  
H        H      0.201900000000     0.319500000000     0.000000000000     0.0966029  
H        H      0.168600000000     0.644800000000     0.000000000000     0.0966029  
H        H      0.798100000000     0.680500000000     0.000000000000     0.0966029  
C        C      0.722450000000     0.116350000000     0.092900000000     0.090022   
C        C      0.715000000000     0.006800000000     0.091600000000     0.090022   
C        C      0.076300000000     0.384900000000     0.654200000000     0.090022   
C        C      0.962150000000     0.264350000000     0.502100000000     0.090022   
C        C      0.778900000000     0.242600000000     0.187200000000     0.090022   
C        C      0.370450000000     0.976550000000     0.092900000000     0.090022   
C        C      0.376600000000     0.084800000000     0.091600000000     0.090022   
C        C      0.577900000000     0.269300000000     0.654200000000     0.090022   
C        C      0.539950000000     0.237750000000     0.502100000000     0.090022   
C        C      0.408300000000     0.944600000000     0.187200000000     0.090022   
C        C      0.116350000000     0.370450000000     0.092900000000     0.090022   
C        C      0.006800000000     0.376600000000     0.091600000000     0.090022   
C        C      0.384900000000     0.577900000000     0.654200000000     0.090022   
C        C      0.264350000000     0.539950000000     0.502100000000     0.090022   
C        C      0.242600000000     0.408300000000     0.187200000000     0.090022   
C        C      0.976550000000     0.722450000000     0.092900000000     0.090022   
C        C      0.084800000000     0.715000000000     0.091600000000     0.090022   
C        C      0.269300000000     0.076300000000     0.654200000000     0.090022   
C        C      0.237750000000     0.962150000000     0.502100000000     0.090022   
C        C      0.944600000000     0.778900000000     0.187200000000     0.090022   
C        C      0.277550000000     0.883650000000     0.907100000000     0.090022   
C        C      0.285000000000     0.993200000000     0.908400000000     0.090022   
C        C      0.923700000000     0.615100000000     0.345800000000     0.090022   
C        C      0.037850000000     0.735650000000     0.497900000000     0.090022   
C        C      0.221100000000     0.757400000000     0.812800000000     0.090022   
C        C      0.629550000000     0.023450000000     0.907100000000     0.090022   
C        C      0.623400000000     0.915200000000     0.908400000000     0.090022   
C        C      0.422100000000     0.730700000000     0.345800000000     0.090022   
C        C      0.460050000000     0.762250000000     0.497900000000     0.090022   
C        C      0.591700000000     0.055400000000     0.812800000000     0.090022   
C        C      0.883650000000     0.629550000000     0.907100000000     0.090022   
C        C      0.993200000000     0.623400000000     0.908400000000     0.090022   
C        C      0.615100000000     0.422100000000     0.345800000000     0.090022   
C        C      0.735650000000     0.460050000000     0.497900000000     0.090022   
C        C      0.757400000000     0.591700000000     0.812800000000     0.090022   
C        C      0.023450000000     0.277550000000     0.907100000000     0.090022   
C        C      0.915200000000     0.285000000000     0.908400000000     0.090022   
C        C      0.730700000000     0.923700000000     0.345800000000     0.090022   
C        C      0.762250000000     0.037850000000     0.497900000000     0.090022   
C        C      0.055400000000     0.221100000000     0.812800000000     0.090022   
C        C      0.658900000000     0.906000000000     0.000000000000     0.090022   
C        C      0.677900000000     0.126000000000     0.000000000000     0.090022   
C        C      0.341100000000     0.094000000000     0.000000000000     0.090022   
C        C      0.322100000000     0.874000000000     0.000000000000     0.090022   
C        C      0.906000000000     0.341100000000     0.000000000000     0.090022   
C        C      0.126000000000     0.322100000000     0.000000000000     0.090022   
C        C      0.094000000000     0.658900000000     0.000000000000     0.090022   
C        C      0.874000000000     0.677900000000     0.000000000000     0.090022   
N        N      0.974570000000     0.365170000000     0.498140000000    -0.207663   
N        N      0.050100000000     0.447800000000     0.599000000000    -0.207663   
N        N      0.022960000000     0.270660000000     0.597320000000    -0.207663   
N        N      0.149340000000     0.431640000000     0.755280000000    -0.207663   
N        N      0.523570000000     0.132970000000     0.498140000000    -0.207663   
N        N      0.548900000000     0.151200000000     0.599000000000    -0.207663   
N        N      0.574360000000     0.326660000000     0.597320000000    -0.207663   
N        N      0.605940000000     0.323640000000     0.755280000000    -0.207663   
N        N      0.365170000000     0.523570000000     0.498140000000    -0.207663   
N        N      0.447800000000     0.548900000000     0.599000000000    -0.207663   
N        N      0.270660000000     0.574360000000     0.597320000000    -0.207663   
N        N      0.431640000000     0.605940000000     0.755280000000    -0.207663   
N        N      0.132970000000     0.974570000000     0.498140000000    -0.207663   
N        N      0.151200000000     0.050100000000     0.599000000000    -0.207663   
N        N      0.326660000000     0.022960000000     0.597320000000    -0.207663   
N        N      0.323640000000     0.149340000000     0.755280000000    -0.207663   
N        N      0.025430000000     0.634830000000     0.501860000000    -0.207663   
N        N      0.949900000000     0.552200000000     0.401000000000    -0.207663   
N        N      0.977040000000     0.729340000000     0.402680000000    -0.207663   
N        N      0.850660000000     0.568360000000     0.244720000000    -0.207663   
N        N      0.476430000000     0.867030000000     0.501860000000    -0.207663   
N        N      0.451100000000     0.848800000000     0.401000000000    -0.207663   
N        N      0.425640000000     0.673340000000     0.402680000000    -0.207663   
N        N      0.394060000000     0.676360000000     0.244720000000    -0.207663   
N        N      0.634830000000     0.476430000000     0.501860000000    -0.207663   
N        N      0.552200000000     0.451100000000     0.401000000000    -0.207663   
N        N      0.729340000000     0.425640000000     0.402680000000    -0.207663   
N        N      0.568360000000     0.394060000000     0.244720000000    -0.207663   
N        N      0.867030000000     0.025430000000     0.501860000000    -0.207663   
N        N      0.848800000000     0.949900000000     0.401000000000    -0.207663   
N        N      0.673340000000     0.977040000000     0.402680000000    -0.207663   
N        N      0.676360000000     0.850660000000     0.244720000000    -0.207663   
O        O      0.752400000000     0.337800000000     0.181600000000    -0.292668   
O        O      0.842900000000     0.237700000000     0.271400000000    -0.292668   
O        O      0.429200000000     0.843800000000     0.181600000000    -0.292668   
O        O      0.428500000000     0.033700000000     0.271400000000    -0.292668   
O        O      0.337800000000     0.429200000000     0.181600000000    -0.292668   
O        O      0.237700000000     0.428500000000     0.271400000000    -0.292668   
O        O      0.843800000000     0.752400000000     0.181600000000    -0.292668   
O        O      0.033700000000     0.842900000000     0.271400000000    -0.292668   
O        O      0.247600000000     0.662200000000     0.818400000000    -0.292668   
O        O      0.157100000000     0.762300000000     0.728600000000    -0.292668   
O        O      0.570800000000     0.156200000000     0.818400000000    -0.292668   
O        O      0.571500000000     0.966300000000     0.728600000000    -0.292668   
O        O      0.662200000000     0.570800000000     0.818400000000    -0.292668   
O        O      0.762300000000     0.571500000000     0.728600000000    -0.292668   
O        O      0.156200000000     0.247600000000     0.818400000000    -0.292668   
O        O      0.966300000000     0.157100000000     0.728600000000    -0.292668   


