data_QIFLUO_original

_audit_creation_method RASPA-1.0
_audit_creation_date 2022-1-30
_audit_author_name 'Felipe Lopes de Oliveira <felipe.lopes.oliveira@ibm.com>'

_cell_length_a    12.1786
_cell_length_b    13.825
_cell_length_c    17.233
_cell_angle_alpha 90
_cell_angle_beta  92.4829
_cell_angle_gamma 90
_cell_volume      2898.78

_symmetry_cell_setting          triclinic
_symmetry_space_group_name_Hall 'P 1'
_symmetry_space_group_name_H-M  'P 1'
_symmetry_Int_Tables_number     1

_symmetry_equiv_pos_as_xyz 'x,y,z'

loop_
_atom_site_label
_atom_site_type_symbol
_atom_site_fract_x
_atom_site_fract_y
_atom_site_fract_z
_atom_site_charge
Zn       Zn     0.439540000000     0.475150000000     0.901600000000     0.385511   
Zn       Zn     0.462970000000     0.902870000000     0.926770000000     0.385511   
Zn       Zn     0.060460000000     0.975150000000     0.098400000000     0.385511   
Zn       Zn     0.037030000000     0.402870000000     0.073230000000     0.385511   
Zn       Zn     0.560460000000     0.524850000000     0.098400000000     0.385511   
Zn       Zn     0.537030000000     0.097130000000     0.073230000000     0.385511   
Zn       Zn     0.939540000000     0.024850000000     0.901600000000     0.385511   
Zn       Zn     0.962970000000     0.597130000000     0.926770000000     0.385511   
H        H      0.470100000000     0.696600000000     0.849600000000     0.0968624  
H        H      0.268400000000     0.387300000000     0.011200000000     0.0968624  
H        H      0.536900000000     0.301100000000     0.699200000000     0.0968624  
H        H      0.539300000000     0.235700000000     0.575600000000     0.0968624  
H        H      0.357100000000     0.454500000000     0.494400000000     0.0968624  
H        H      0.355900000000     0.518800000000     0.615000000000     0.0968624  
H        H      0.237400000000     0.259800000000     0.456400000000     0.0968624  
H        H      0.102900000000     0.291700000000     0.360700000000     0.0968624  
H        H      0.336900000000     0.384600000000     0.220400000000     0.0968624  
H        H      0.467400000000     0.355700000000     0.317000000000     0.0968624  
H        H      0.264400000000     0.604700000000     0.809300000000     0.0968624  
H        H      0.146600000000     0.631300000000     0.815200000000     0.0968624  
H        H      0.532900000000     0.736500000000     0.134400000000     0.0968624  
H        H      0.521100000000     0.830400000000     0.092400000000     0.0968624  
H        H      0.029900000000     0.196600000000     0.150400000000     0.0968624  
H        H      0.231600000000     0.887300000000     0.988800000000     0.0968624  
H        H      0.963100000000     0.801100000000     0.300800000000     0.0968624  
H        H      0.960700000000     0.735700000000     0.424400000000     0.0968624  
H        H      0.142900000000     0.954500000000     0.505600000000     0.0968624  
H        H      0.144100000000     0.018800000000     0.385000000000     0.0968624  
H        H      0.262600000000     0.759800000000     0.543600000000     0.0968624  
H        H      0.397100000000     0.791700000000     0.639300000000     0.0968624  
H        H      0.163100000000     0.884600000000     0.779600000000     0.0968624  
H        H      0.032600000000     0.855700000000     0.683000000000     0.0968624  
H        H      0.235600000000     0.104700000000     0.190700000000     0.0968624  
H        H      0.353400000000     0.131300000000     0.184800000000     0.0968624  
H        H      0.967100000000     0.236500000000     0.865600000000     0.0968624  
H        H      0.978900000000     0.330400000000     0.907600000000     0.0968624  
H        H      0.529900000000     0.303400000000     0.150400000000     0.0968624  
H        H      0.731600000000     0.612700000000     0.988800000000     0.0968624  
H        H      0.463100000000     0.698900000000     0.300800000000     0.0968624  
H        H      0.460700000000     0.764300000000     0.424400000000     0.0968624  
H        H      0.642900000000     0.545500000000     0.505600000000     0.0968624  
H        H      0.644100000000     0.481200000000     0.385000000000     0.0968624  
H        H      0.762600000000     0.740200000000     0.543600000000     0.0968624  
H        H      0.897100000000     0.708300000000     0.639300000000     0.0968624  
H        H      0.663100000000     0.615400000000     0.779600000000     0.0968624  
H        H      0.532600000000     0.644300000000     0.683000000000     0.0968624  
H        H      0.735600000000     0.395300000000     0.190700000000     0.0968624  
H        H      0.853400000000     0.368700000000     0.184800000000     0.0968624  
H        H      0.467100000000     0.263500000000     0.865600000000     0.0968624  
H        H      0.478900000000     0.169600000000     0.907600000000     0.0968624  
H        H      0.970100000000     0.803400000000     0.849600000000     0.0968624  
H        H      0.768400000000     0.112700000000     0.011200000000     0.0968624  
H        H      0.036900000000     0.198900000000     0.699200000000     0.0968624  
H        H      0.039300000000     0.264300000000     0.575600000000     0.0968624  
H        H      0.857100000000     0.045500000000     0.494400000000     0.0968624  
H        H      0.855900000000     0.981200000000     0.615000000000     0.0968624  
H        H      0.737400000000     0.240200000000     0.456400000000     0.0968624  
H        H      0.602900000000     0.208300000000     0.360700000000     0.0968624  
H        H      0.836900000000     0.115400000000     0.220400000000     0.0968624  
H        H      0.967400000000     0.144300000000     0.317000000000     0.0968624  
H        H      0.764400000000     0.895300000000     0.809300000000     0.0968624  
H        H      0.646600000000     0.868700000000     0.815200000000     0.0968624  
H        H      0.032900000000     0.763500000000     0.134400000000     0.0968624  
H        H      0.021100000000     0.669600000000     0.092400000000     0.0968624  
C        C      0.482800000000     0.688900000000     0.902800000000     0.0605791  
C        C      0.509100000000     0.719700000000     0.022700000000     0.0605791  
C        C      0.194000000000     0.535400000000     0.889700000000     0.0605791  
C        C      0.230700000000     0.431600000000     0.979300000000     0.0605791  
C        C      0.441300000000     0.460000000000     0.751000000000     0.0605791  
C        C      0.446000000000     0.417300000000     0.670500000000     0.0605791  
C        C      0.500000000000     0.332200000000     0.658000000000     0.0605791  
C        C      0.500000000000     0.292100000000     0.584000000000     0.0605791  
C        C      0.442500000000     0.335200000000     0.523800000000     0.0605791  
C        C      0.391900000000     0.422200000000     0.535800000000     0.0605791  
C        C      0.392700000000     0.460800000000     0.607600000000     0.0605791  
C        C      0.364700000000     0.310000000000     0.396300000000     0.0605791  
C        C      0.256100000000     0.287100000000     0.409500000000     0.0605791  
C        C      0.176000000000     0.305500000000     0.351800000000     0.0605791  
C        C      0.203600000000     0.344800000000     0.279900000000     0.0605791  
C        C      0.315700000000     0.361500000000     0.268200000000     0.0605791  
C        C      0.393800000000     0.344200000000     0.325900000000     0.0605791  
C        C      0.117300000000     0.365600000000     0.218600000000     0.0605791  
C        C      0.017200000000     0.188900000000     0.097200000000     0.0605791  
C        C      0.990900000000     0.219700000000     0.977300000000     0.0605791  
C        C      0.306000000000     0.035400000000     0.110300000000     0.0605791  
C        C      0.269300000000     0.931600000000     0.020700000000     0.0605791  
C        C      0.058700000000     0.960000000000     0.249000000000     0.0605791  
C        C      0.054000000000     0.917300000000     0.329500000000     0.0605791  
C        C      0.000000000000     0.832200000000     0.342000000000     0.0605791  
C        C      0.000000000000     0.792100000000     0.416000000000     0.0605791  
C        C      0.057500000000     0.835200000000     0.476200000000     0.0605791  
C        C      0.108100000000     0.922200000000     0.464200000000     0.0605791  
C        C      0.107300000000     0.960800000000     0.392400000000     0.0605791  
C        C      0.135300000000     0.810000000000     0.603700000000     0.0605791  
C        C      0.243900000000     0.787100000000     0.590500000000     0.0605791  
C        C      0.324000000000     0.805500000000     0.648200000000     0.0605791  
C        C      0.296400000000     0.844800000000     0.720100000000     0.0605791  
C        C      0.184300000000     0.861500000000     0.731800000000     0.0605791  
C        C      0.106200000000     0.844200000000     0.674100000000     0.0605791  
C        C      0.382700000000     0.865600000000     0.781400000000     0.0605791  
C        C      0.517200000000     0.311100000000     0.097200000000     0.0605791  
C        C      0.490900000000     0.280300000000     0.977300000000     0.0605791  
C        C      0.806000000000     0.464600000000     0.110300000000     0.0605791  
C        C      0.769300000000     0.568400000000     0.020700000000     0.0605791  
C        C      0.558700000000     0.540000000000     0.249000000000     0.0605791  
C        C      0.554000000000     0.582700000000     0.329500000000     0.0605791  
C        C      0.500000000000     0.667800000000     0.342000000000     0.0605791  
C        C      0.500000000000     0.707900000000     0.416000000000     0.0605791  
C        C      0.557500000000     0.664800000000     0.476200000000     0.0605791  
C        C      0.608100000000     0.577800000000     0.464200000000     0.0605791  
C        C      0.607300000000     0.539200000000     0.392400000000     0.0605791  
C        C      0.635300000000     0.690000000000     0.603700000000     0.0605791  
C        C      0.743900000000     0.712900000000     0.590500000000     0.0605791  
C        C      0.824000000000     0.694500000000     0.648200000000     0.0605791  
C        C      0.796400000000     0.655200000000     0.720100000000     0.0605791  
C        C      0.684300000000     0.638500000000     0.731800000000     0.0605791  
C        C      0.606200000000     0.655800000000     0.674100000000     0.0605791  
C        C      0.882700000000     0.634400000000     0.781400000000     0.0605791  
C        C      0.982800000000     0.811100000000     0.902800000000     0.0605791  
C        C      0.009100000000     0.780300000000     0.022700000000     0.0605791  
C        C      0.694000000000     0.964600000000     0.889700000000     0.0605791  
C        C      0.730700000000     0.068400000000     0.979300000000     0.0605791  
C        C      0.941300000000     0.040000000000     0.751000000000     0.0605791  
C        C      0.946000000000     0.082700000000     0.670500000000     0.0605791  
C        C      0.000000000000     0.167800000000     0.658000000000     0.0605791  
C        C      0.000000000000     0.207900000000     0.584000000000     0.0605791  
C        C      0.942500000000     0.164800000000     0.523800000000     0.0605791  
C        C      0.891900000000     0.077800000000     0.535800000000     0.0605791  
C        C      0.892700000000     0.039200000000     0.607600000000     0.0605791  
C        C      0.864700000000     0.190000000000     0.396300000000     0.0605791  
C        C      0.756100000000     0.212900000000     0.409500000000     0.0605791  
C        C      0.676000000000     0.194500000000     0.351800000000     0.0605791  
C        C      0.703600000000     0.155200000000     0.279900000000     0.0605791  
C        C      0.815700000000     0.138500000000     0.268200000000     0.0605791  
C        C      0.893800000000     0.155800000000     0.325900000000     0.0605791  
C        C      0.617300000000     0.134400000000     0.218600000000     0.0605791  
N        N      0.277200000000     0.479200000000     0.919200000000    -0.211929   
N        N      0.100100000000     0.522400000000     0.928100000000    -0.211929   
N        N      0.127000000000     0.455200000000     0.987200000000    -0.211929   
N        N      0.202700000000     0.597900000000     0.831100000000    -0.211929   
N        N      0.510800000000     0.622900000000     0.017100000000    -0.211929   
N        N      0.491800000000     0.762700000000     0.952700000000    -0.211929   
N        N      0.494100000000     0.603500000000     0.937400000000    -0.211929   
N        N      0.522700000000     0.768200000000     0.091700000000    -0.211929   
N        N      0.222800000000     0.979200000000     0.080800000000    -0.211929   
N        N      0.399900000000     0.022400000000     0.071900000000    -0.211929   
N        N      0.373000000000     0.955200000000     0.012800000000    -0.211929   
N        N      0.297300000000     0.097900000000     0.168900000000    -0.211929   
N        N      0.989200000000     0.122900000000     0.982900000000    -0.211929   
N        N      0.008200000000     0.262700000000     0.047300000000    -0.211929   
N        N      0.005900000000     0.103500000000     0.062600000000    -0.211929   
N        N      0.977300000000     0.268200000000     0.908300000000    -0.211929   
N        N      0.722800000000     0.520800000000     0.080800000000    -0.211929   
N        N      0.899900000000     0.477600000000     0.071900000000    -0.211929   
N        N      0.873000000000     0.544800000000     0.012800000000    -0.211929   
N        N      0.797300000000     0.402100000000     0.168900000000    -0.211929   
N        N      0.489200000000     0.377100000000     0.982900000000    -0.211929   
N        N      0.508200000000     0.237300000000     0.047300000000    -0.211929   
N        N      0.505900000000     0.396500000000     0.062600000000    -0.211929   
N        N      0.477300000000     0.231800000000     0.908300000000    -0.211929   
N        N      0.777200000000     0.020800000000     0.919200000000    -0.211929   
N        N      0.600100000000     0.977600000000     0.928100000000    -0.211929   
N        N      0.627000000000     0.044800000000     0.987200000000    -0.211929   
N        N      0.702700000000     0.902100000000     0.831100000000    -0.211929   
N        N      0.010800000000     0.877100000000     0.017100000000    -0.211929   
N        N      0.991800000000     0.737300000000     0.952700000000    -0.211929   
N        N      0.994100000000     0.896500000000     0.937400000000    -0.211929   
N        N      0.022700000000     0.731800000000     0.091700000000    -0.211929   
O        O      0.446500000000     0.288700000000     0.452500000000    -0.304417   
O        O      0.019900000000     0.347200000000     0.228000000000    -0.304417   
O        O      0.153000000000     0.401200000000     0.153800000000    -0.304417   
O        O      0.403700000000     0.541300000000     0.761400000000    -0.304417   
O        O      0.481500000000     0.407600000000     0.806700000000    -0.304417   
O        O      0.053500000000     0.788700000000     0.547500000000    -0.304417   
O        O      0.480100000000     0.847200000000     0.772000000000    -0.304417   
O        O      0.347000000000     0.901200000000     0.846200000000    -0.304417   
O        O      0.096300000000     0.041300000000     0.238600000000    -0.304417   
O        O      0.018500000000     0.907600000000     0.193300000000    -0.304417   
O        O      0.553500000000     0.711300000000     0.547500000000    -0.304417   
O        O      0.980100000000     0.652800000000     0.772000000000    -0.304417   
O        O      0.847000000000     0.598800000000     0.846200000000    -0.304417   
O        O      0.596300000000     0.458700000000     0.238600000000    -0.304417   
O        O      0.518500000000     0.592400000000     0.193300000000    -0.304417   
O        O      0.946500000000     0.211300000000     0.452500000000    -0.304417   
O        O      0.519900000000     0.152800000000     0.228000000000    -0.304417   
O        O      0.653000000000     0.098800000000     0.153800000000    -0.304417   
O        O      0.903700000000     0.958700000000     0.761400000000    -0.304417   
O        O      0.981500000000     0.092400000000     0.806700000000    -0.304417   


