data_QOVWOO_original

_audit_creation_method RASPA-1.0
_audit_creation_date 2022-1-30
_audit_author_name 'Felipe Lopes de Oliveira <felipe.lopes.oliveira@ibm.com>'

_cell_length_a    6.6812
_cell_length_b    15.1642
_cell_length_c    19.2395
_cell_angle_alpha 90
_cell_angle_beta  95.9158
_cell_angle_gamma 90
_cell_volume      1938.87

_symmetry_cell_setting          triclinic
_symmetry_space_group_name_Hall 'P 1'
_symmetry_space_group_name_H-M  'P 1'
_symmetry_Int_Tables_number     1

_symmetry_equiv_pos_as_xyz 'x,y,z'

loop_
_atom_site_label
_atom_site_type_symbol
_atom_site_fract_x
_atom_site_fract_y
_atom_site_fract_z
_atom_site_charge
Ga       Ga     0.019280000000     0.253960000000     0.504320000000     3.92024    
Ga       Ga     0.480720000000     0.753960000000     0.495680000000     3.92024    
Ga       Ga     0.980720000000     0.746040000000     0.495680000000     3.92024    
Ga       Ga     0.519280000000     0.246040000000     0.504320000000     3.92024    
Ga       Ga     0.500000000000     0.000000000000     0.000000000000     3.92024    
Ga       Ga     0.000000000000     0.500000000000     0.000000000000     3.92024    
Ga       Ga     0.000000000000     0.000000000000     0.000000000000     3.92024    
Ga       Ga     0.500000000000     0.500000000000     0.000000000000     3.92024    
H        H      0.081490000000     0.093720000000     0.212680000000     0.0280203  
H        H      0.057270000000     0.124740000000     0.331190000000     0.0280203  
H        H      0.448310000000     0.142730000000     0.291760000000     0.0280203  
H        H      0.472520000000     0.111710000000     0.173240000000     0.0280203  
H        H      0.060100000000     0.176890000000     0.719180000000     0.0280203  
H        H      0.027720000000     0.143630000000     0.836800000000     0.0280203  
H        H      0.447320000000     0.068120000000     0.784010000000     0.0280203  
H        H      0.479700000000     0.101390000000     0.666390000000     0.0280203  
H        H      0.418510000000     0.593720000000     0.787320000000     0.0280203  
H        H      0.442730000000     0.624740000000     0.668810000000     0.0280203  
H        H      0.051690000000     0.642730000000     0.708240000000     0.0280203  
H        H      0.027480000000     0.611710000000     0.826760000000     0.0280203  
H        H      0.439900000000     0.676890000000     0.280820000000     0.0280203  
H        H      0.472280000000     0.643630000000     0.163200000000     0.0280203  
H        H      0.052680000000     0.568120000000     0.215990000000     0.0280203  
H        H      0.020300000000     0.601390000000     0.333610000000     0.0280203  
H        H      0.918510000000     0.906280000000     0.787320000000     0.0280203  
H        H      0.942730000000     0.875260000000     0.668810000000     0.0280203  
H        H      0.551690000000     0.857270000000     0.708240000000     0.0280203  
H        H      0.527480000000     0.888290000000     0.826760000000     0.0280203  
H        H      0.939900000000     0.823110000000     0.280820000000     0.0280203  
H        H      0.972280000000     0.856370000000     0.163200000000     0.0280203  
H        H      0.552680000000     0.931880000000     0.215990000000     0.0280203  
H        H      0.520300000000     0.898610000000     0.333610000000     0.0280203  
H        H      0.581490000000     0.406280000000     0.212680000000     0.0280203  
H        H      0.557270000000     0.375260000000     0.331190000000     0.0280203  
H        H      0.948310000000     0.357270000000     0.291760000000     0.0280203  
H        H      0.972520000000     0.388290000000     0.173240000000     0.0280203  
H        H      0.560100000000     0.323110000000     0.719180000000     0.0280203  
H        H      0.527720000000     0.356370000000     0.836800000000     0.0280203  
H        H      0.947320000000     0.431880000000     0.784010000000     0.0280203  
H        H      0.979700000000     0.398610000000     0.666390000000     0.0280203  
C        C      0.779020000000     0.100140000000     0.183130000000     0.140896   
C        C      0.949470000000     0.103940000000     0.229170000000     0.140896   
C        C      0.935350000000     0.122020000000     0.298260000000     0.140896   
C        C      0.750780000000     0.136310000000     0.321310000000     0.140896   
C        C      0.580330000000     0.132510000000     0.275270000000     0.140896   
C        C      0.594450000000     0.114420000000     0.206180000000     0.140896   
C        C      0.794270000000     0.080600000000     0.108490000000     0.140896   
C        C      0.735530000000     0.155840000000     0.395950000000     0.140896   
C        C      0.772590000000     0.141900000000     0.683030000000     0.140896   
C        C      0.932330000000     0.154210000000     0.732700000000     0.140896   
C        C      0.913450000000     0.134820000000     0.801270000000     0.140896   
C        C      0.734830000000     0.103120000000     0.820160000000     0.140896   
C        C      0.575090000000     0.090800000000     0.770490000000     0.140896   
C        C      0.593970000000     0.110190000000     0.701920000000     0.140896   
C        C      0.792990000000     0.162850000000     0.608960000000     0.140896   
C        C      0.714430000000     0.082170000000     0.894230000000     0.140896   
C        C      0.720980000000     0.600140000000     0.816870000000     0.140896   
C        C      0.550530000000     0.603940000000     0.770830000000     0.140896   
C        C      0.564650000000     0.622020000000     0.701740000000     0.140896   
C        C      0.749220000000     0.636310000000     0.678690000000     0.140896   
C        C      0.919670000000     0.632510000000     0.724730000000     0.140896   
C        C      0.905550000000     0.614420000000     0.793820000000     0.140896   
C        C      0.705730000000     0.580600000000     0.891510000000     0.140896   
C        C      0.764470000000     0.655840000000     0.604050000000     0.140896   
C        C      0.727410000000     0.641900000000     0.316970000000     0.140896   
C        C      0.567670000000     0.654210000000     0.267300000000     0.140896   
C        C      0.586550000000     0.634820000000     0.198730000000     0.140896   
C        C      0.765170000000     0.603120000000     0.179840000000     0.140896   
C        C      0.924910000000     0.590800000000     0.229510000000     0.140896   
C        C      0.906030000000     0.610190000000     0.298080000000     0.140896   
C        C      0.707010000000     0.662850000000     0.391040000000     0.140896   
C        C      0.785570000000     0.582170000000     0.105770000000     0.140896   
C        C      0.220980000000     0.899860000000     0.816870000000     0.140896   
C        C      0.050530000000     0.896060000000     0.770830000000     0.140896   
C        C      0.064650000000     0.877980000000     0.701740000000     0.140896   
C        C      0.249220000000     0.863690000000     0.678690000000     0.140896   
C        C      0.419670000000     0.867490000000     0.724730000000     0.140896   
C        C      0.405550000000     0.885580000000     0.793820000000     0.140896   
C        C      0.205730000000     0.919400000000     0.891510000000     0.140896   
C        C      0.264470000000     0.844160000000     0.604050000000     0.140896   
C        C      0.227410000000     0.858100000000     0.316970000000     0.140896   
C        C      0.067670000000     0.845790000000     0.267300000000     0.140896   
C        C      0.086550000000     0.865180000000     0.198730000000     0.140896   
C        C      0.265170000000     0.896880000000     0.179840000000     0.140896   
C        C      0.424910000000     0.909200000000     0.229510000000     0.140896   
C        C      0.406030000000     0.889810000000     0.298080000000     0.140896   
C        C      0.207010000000     0.837150000000     0.391040000000     0.140896   
C        C      0.285570000000     0.917830000000     0.105770000000     0.140896   
C        C      0.279020000000     0.399860000000     0.183130000000     0.140896   
C        C      0.449470000000     0.396060000000     0.229170000000     0.140896   
C        C      0.435350000000     0.377980000000     0.298260000000     0.140896   
C        C      0.250780000000     0.363690000000     0.321310000000     0.140896   
C        C      0.080330000000     0.367490000000     0.275270000000     0.140896   
C        C      0.094450000000     0.385580000000     0.206180000000     0.140896   
C        C      0.294270000000     0.419400000000     0.108490000000     0.140896   
C        C      0.235530000000     0.344160000000     0.395950000000     0.140896   
C        C      0.272590000000     0.358100000000     0.683030000000     0.140896   
C        C      0.432330000000     0.345790000000     0.732700000000     0.140896   
C        C      0.413450000000     0.365180000000     0.801270000000     0.140896   
C        C      0.234830000000     0.396880000000     0.820160000000     0.140896   
C        C      0.075090000000     0.409200000000     0.770490000000     0.140896   
C        C      0.093970000000     0.389810000000     0.701920000000     0.140896   
C        C      0.292990000000     0.337150000000     0.608960000000     0.140896   
C        C      0.214430000000     0.417830000000     0.894230000000     0.140896   
O        O      0.271800000000     0.189000000000     0.501000000000    -1.0319     
O        O      0.246500000000     0.063600000000     0.000100000000    -1.0319     
O        O      0.965080000000     0.066030000000     0.087320000000    -1.0319     
O        O      0.636550000000     0.078420000000     0.065610000000    -1.0319     
O        O      0.893000000000     0.157030000000     0.438970000000    -1.0319     
O        O      0.564970000000     0.171420000000     0.416970000000    -1.0319     
O        O      0.958510000000     0.192310000000     0.591450000000    -1.0319     
O        O      0.644960000000     0.151350000000     0.562900000000    -1.0319     
O        O      0.859330000000     0.097470000000     0.940740000000    -1.0319     
O        O      0.552040000000     0.048900000000     0.911290000000    -1.0319     
O        O      0.228200000000     0.689000000000     0.499000000000    -1.0319     
O        O      0.253500000000     0.563600000000     0.999900000000    -1.0319     
O        O      0.534920000000     0.566030000000     0.912680000000    -1.0319     
O        O      0.863450000000     0.578420000000     0.934390000000    -1.0319     
O        O      0.607000000000     0.657030000000     0.561030000000    -1.0319     
O        O      0.935030000000     0.671420000000     0.583030000000    -1.0319     
O        O      0.541490000000     0.692310000000     0.408550000000    -1.0319     
O        O      0.855040000000     0.651350000000     0.437100000000    -1.0319     
O        O      0.640670000000     0.597470000000     0.059260000000    -1.0319     
O        O      0.947960000000     0.548900000000     0.088710000000    -1.0319     
O        O      0.728200000000     0.811000000000     0.499000000000    -1.0319     
O        O      0.753500000000     0.936400000000     0.999900000000    -1.0319     
O        O      0.034920000000     0.933970000000     0.912680000000    -1.0319     
O        O      0.363450000000     0.921580000000     0.934390000000    -1.0319     
O        O      0.107000000000     0.842970000000     0.561030000000    -1.0319     
O        O      0.435030000000     0.828580000000     0.583030000000    -1.0319     
O        O      0.041490000000     0.807690000000     0.408550000000    -1.0319     
O        O      0.355040000000     0.848650000000     0.437100000000    -1.0319     
O        O      0.140670000000     0.902530000000     0.059260000000    -1.0319     
O        O      0.447960000000     0.951100000000     0.088710000000    -1.0319     
O        O      0.771800000000     0.311000000000     0.501000000000    -1.0319     
O        O      0.746500000000     0.436400000000     0.000100000000    -1.0319     
O        O      0.465080000000     0.433970000000     0.087320000000    -1.0319     
O        O      0.136550000000     0.421580000000     0.065610000000    -1.0319     
O        O      0.393000000000     0.342970000000     0.438970000000    -1.0319     
O        O      0.064970000000     0.328580000000     0.416970000000    -1.0319     
O        O      0.458510000000     0.307690000000     0.591450000000    -1.0319     
O        O      0.144960000000     0.348650000000     0.562900000000    -1.0319     
O        O      0.359330000000     0.402530000000     0.940740000000    -1.0319     
O        O      0.052040000000     0.451100000000     0.911290000000    -1.0319     


