data_QUDJOP_original

_audit_creation_method RASPA-1.0
_audit_creation_date 2022-1-30
_audit_author_name 'Felipe Lopes de Oliveira <felipe.lopes.oliveira@ibm.com>'

_cell_length_a    10.101
_cell_length_b    10.2184
_cell_length_c    21.058
_cell_angle_alpha 90
_cell_angle_beta  90
_cell_angle_gamma 106.098
_cell_volume      2088.3

_symmetry_cell_setting          triclinic
_symmetry_space_group_name_Hall 'P 1'
_symmetry_space_group_name_H-M  'P 1'
_symmetry_Int_Tables_number     1

_symmetry_equiv_pos_as_xyz 'x,y,z'

loop_
_atom_site_label
_atom_site_type_symbol
_atom_site_fract_x
_atom_site_fract_y
_atom_site_fract_z
_atom_site_charge
Zn       Zn     0.899520000000     0.376890000000     0.212650000000     0.401115   
Zn       Zn     0.600480000000     0.123110000000     0.712650000000     0.401115   
Zn       Zn     0.100480000000     0.623110000000     0.787350000000     0.401115   
Zn       Zn     0.399520000000     0.876890000000     0.287350000000     0.401115   
H        H      0.934700000000     0.658800000000     0.023600000000     0.0740419  
H        H      0.209600000000     0.037100000000     0.129100000000     0.0740419  
H        H      0.861100000000     0.810600000000     0.946900000000     0.0740419  
H        H      0.891700000000     0.284600000000     0.077800000000     0.0740419  
H        H      0.742100000000     0.151900000000     0.006000000000     0.0740419  
H        H      0.466400000000     0.037600000000     0.146300000000     0.0740419  
H        H      0.620100000000     0.178200000000     0.214400000000     0.0740419  
H        H      0.565300000000     0.841200000000     0.523600000000     0.0740419  
H        H      0.290400000000     0.462900000000     0.629100000000     0.0740419  
H        H      0.638900000000     0.689400000000     0.446900000000     0.0740419  
H        H      0.608300000000     0.215400000000     0.577800000000     0.0740419  
H        H      0.757900000000     0.348100000000     0.506000000000     0.0740419  
H        H      0.033600000000     0.462400000000     0.646300000000     0.0740419  
H        H      0.879900000000     0.321800000000     0.714400000000     0.0740419  
H        H      0.065300000000     0.341200000000     0.976400000000     0.0740419  
H        H      0.790400000000     0.962900000000     0.870900000000     0.0740419  
H        H      0.138900000000     0.189400000000     0.053100000000     0.0740419  
H        H      0.108300000000     0.715400000000     0.922200000000     0.0740419  
H        H      0.257900000000     0.848100000000     0.994000000000     0.0740419  
H        H      0.533600000000     0.962400000000     0.853700000000     0.0740419  
H        H      0.379900000000     0.821800000000     0.785600000000     0.0740419  
H        H      0.434700000000     0.158800000000     0.476400000000     0.0740419  
H        H      0.709600000000     0.537100000000     0.370900000000     0.0740419  
H        H      0.361100000000     0.310600000000     0.553100000000     0.0740419  
H        H      0.391700000000     0.784600000000     0.422200000000     0.0740419  
H        H      0.242100000000     0.651900000000     0.494000000000     0.0740419  
H        H      0.966400000000     0.537600000000     0.353700000000     0.0740419  
H        H      0.120100000000     0.678200000000     0.285600000000     0.0740419  
C        C      0.038300000000     0.575400000000     0.122640000000     0.0287327  
C        C      0.062500000000     0.717100000000     0.096910000000     0.0287327  
C        C      0.988600000000     0.735000000000     0.044590000000     0.0287327  
C        C      0.992100000000     0.865800000000     0.021690000000     0.0287327  
C        C      0.076700000000     0.983800000000     0.053810000000     0.0287327  
C        C      0.154100000000     0.962100000000     0.107760000000     0.0287327  
C        C      0.148900000000     0.835800000000     0.128650000000     0.0287327  
C        C      0.916500000000     0.885800000000     0.968060000000     0.0287327  
C        C      0.240600000000     0.816600000000     0.182290000000     0.0287327  
C        C      0.804700000000     0.235000000000     0.091480000000     0.0287327  
C        C      0.716000000000     0.155200000000     0.048210000000     0.0287327  
C        C      0.587100000000     0.079900000000     0.068840000000     0.0287327  
C        C      0.552000000000     0.088000000000     0.131510000000     0.0287327  
C        C      0.645100000000     0.171700000000     0.172230000000     0.0287327  
C        C      0.461700000000     0.924600000000     0.622640000000     0.0287327  
C        C      0.437500000000     0.782900000000     0.596910000000     0.0287327  
C        C      0.511400000000     0.765000000000     0.544590000000     0.0287327  
C        C      0.507900000000     0.634200000000     0.521690000000     0.0287327  
C        C      0.423300000000     0.516200000000     0.553810000000     0.0287327  
C        C      0.345900000000     0.537900000000     0.607760000000     0.0287327  
C        C      0.351100000000     0.664200000000     0.628650000000     0.0287327  
C        C      0.583500000000     0.614200000000     0.468060000000     0.0287327  
C        C      0.259400000000     0.683400000000     0.682290000000     0.0287327  
C        C      0.695300000000     0.265000000000     0.591480000000     0.0287327  
C        C      0.784000000000     0.344800000000     0.548210000000     0.0287327  
C        C      0.912900000000     0.420100000000     0.568840000000     0.0287327  
C        C      0.948000000000     0.412000000000     0.631510000000     0.0287327  
C        C      0.854900000000     0.328300000000     0.672230000000     0.0287327  
C        C      0.961700000000     0.424600000000     0.877360000000     0.0287327  
C        C      0.937500000000     0.282900000000     0.903090000000     0.0287327  
C        C      0.011400000000     0.265000000000     0.955410000000     0.0287327  
C        C      0.007900000000     0.134200000000     0.978310000000     0.0287327  
C        C      0.923300000000     0.016200000000     0.946190000000     0.0287327  
C        C      0.845900000000     0.037900000000     0.892240000000     0.0287327  
C        C      0.851100000000     0.164200000000     0.871350000000     0.0287327  
C        C      0.083500000000     0.114200000000     0.031940000000     0.0287327  
C        C      0.759400000000     0.183400000000     0.817710000000     0.0287327  
C        C      0.195300000000     0.765000000000     0.908520000000     0.0287327  
C        C      0.284000000000     0.844800000000     0.951790000000     0.0287327  
C        C      0.412900000000     0.920100000000     0.931160000000     0.0287327  
C        C      0.448000000000     0.912000000000     0.868490000000     0.0287327  
C        C      0.354900000000     0.828300000000     0.827770000000     0.0287327  
C        C      0.538300000000     0.075400000000     0.377360000000     0.0287327  
C        C      0.562500000000     0.217100000000     0.403090000000     0.0287327  
C        C      0.488600000000     0.235000000000     0.455410000000     0.0287327  
C        C      0.492100000000     0.365800000000     0.478310000000     0.0287327  
C        C      0.576700000000     0.483800000000     0.446190000000     0.0287327  
C        C      0.654100000000     0.462100000000     0.392240000000     0.0287327  
C        C      0.648900000000     0.335800000000     0.371350000000     0.0287327  
C        C      0.416500000000     0.385800000000     0.531940000000     0.0287327  
C        C      0.740600000000     0.316600000000     0.317710000000     0.0287327  
C        C      0.304700000000     0.735000000000     0.408520000000     0.0287327  
C        C      0.216000000000     0.655200000000     0.451790000000     0.0287327  
C        C      0.087100000000     0.579900000000     0.431160000000     0.0287327  
C        C      0.052000000000     0.588000000000     0.368490000000     0.0287327  
C        C      0.145100000000     0.671700000000     0.327770000000     0.0287327  
N        N      0.770800000000     0.244100000000     0.152700000000    -0.13995    
N        N      0.486200000000     0.991300000000     0.028610000000    -0.13995    
N        N      0.729200000000     0.255900000000     0.652700000000    -0.13995    
N        N      0.013800000000     0.508700000000     0.528610000000    -0.13995    
N        N      0.229200000000     0.755900000000     0.847300000000    -0.13995    
N        N      0.513800000000     0.008700000000     0.971390000000    -0.13995    
N        N      0.270800000000     0.744100000000     0.347300000000    -0.13995    
N        N      0.986200000000     0.491300000000     0.471390000000    -0.13995    
O        O      0.975900000000     0.558100000000     0.177140000000    -0.260441   
O        O      0.067900000000     0.485000000000     0.091880000000    -0.260441   
O        O      0.275300000000     0.710600000000     0.186790000000    -0.260441   
O        O      0.282300000000     0.918000000000     0.220170000000    -0.260441   
O        O      0.524100000000     0.941900000000     0.677140000000    -0.260441   
O        O      0.432100000000     0.015000000000     0.591880000000    -0.260441   
O        O      0.224700000000     0.789400000000     0.686790000000    -0.260441   
O        O      0.217700000000     0.582000000000     0.720170000000    -0.260441   
O        O      0.024100000000     0.441900000000     0.822860000000    -0.260441   
O        O      0.932100000000     0.515000000000     0.908120000000    -0.260441   
O        O      0.724700000000     0.289400000000     0.813210000000    -0.260441   
O        O      0.717700000000     0.082000000000     0.779830000000    -0.260441   
O        O      0.475900000000     0.058100000000     0.322860000000    -0.260441   
O        O      0.567900000000     0.985000000000     0.408120000000    -0.260441   
O        O      0.775300000000     0.210600000000     0.313210000000    -0.260441   
O        O      0.782300000000     0.418000000000     0.279830000000    -0.260441   


