data_QUQFIS_original

_audit_creation_method RASPA-1.0
_audit_creation_date 2022-1-29
_audit_author_name 'Felipe Lopes de Oliveira <felipe.lopes.oliveira@ibm.com>'

_cell_length_a    18.59
_cell_length_b    18.59
_cell_length_c    18.59
_cell_angle_alpha 74.8765
_cell_angle_beta  74.8765
_cell_angle_gamma 74.8765
_cell_volume      5857.6

_symmetry_cell_setting          triclinic
_symmetry_space_group_name_Hall 'P 1'
_symmetry_space_group_name_H-M  'P 1'
_symmetry_Int_Tables_number     1

_symmetry_equiv_pos_as_xyz 'x,y,z'

loop_
_atom_site_label
_atom_site_type_symbol
_atom_site_fract_x
_atom_site_fract_y
_atom_site_fract_z
_atom_site_charge
Zn       Zn     0.502420000000     0.298420000000     0.080570000000     0.431897   
Zn       Zn     0.598890000000     0.267730000000     0.909700000000     0.431897   
Zn       Zn     0.080570000000     0.502420000000     0.298420000000     0.431897   
Zn       Zn     0.909700000000     0.598890000000     0.267730000000     0.431897   
Zn       Zn     0.298420000000     0.080570000000     0.502420000000     0.431897   
Zn       Zn     0.267730000000     0.909700000000     0.598890000000     0.431897   
Zn       Zn     0.798420000000     0.002420000000     0.580570000000     0.431897   
Zn       Zn     0.767730000000     0.098890000000     0.409700000000     0.431897   
Zn       Zn     0.002420000000     0.580570000000     0.798420000000     0.431897   
Zn       Zn     0.098890000000     0.409700000000     0.767730000000     0.431897   
Zn       Zn     0.580570000000     0.798420000000     0.002420000000     0.431897   
Zn       Zn     0.409700000000     0.767730000000     0.098890000000     0.431897   
H        H      0.498600000000     0.528600000000     0.022000000000     0.065048   
H        H      0.566500000000     0.710700000000     0.868600000000     0.065048   
H        H      0.630000000000     0.503000000000     0.815700000000     0.065048   
H        H      0.561600000000     0.744500000000     0.737700000000     0.065048   
H        H      0.686200000000     0.193500000000     0.181800000000     0.065048   
H        H      0.875900000000     0.028300000000     0.177100000000     0.065048   
H        H      0.802700000000     0.133600000000     0.980900000000     0.065048   
H        H      0.933600000000     0.112200000000     0.931700000000     0.065048   
H        H      0.022000000000     0.498600000000     0.528600000000     0.065048   
H        H      0.868600000000     0.566500000000     0.710700000000     0.065048   
H        H      0.815700000000     0.630000000000     0.503000000000     0.065048   
H        H      0.737700000000     0.561600000000     0.744500000000     0.065048   
H        H      0.181800000000     0.686200000000     0.193500000000     0.065048   
H        H      0.177100000000     0.875900000000     0.028300000000     0.065048   
H        H      0.980900000000     0.802700000000     0.133600000000     0.065048   
H        H      0.931700000000     0.933600000000     0.112200000000     0.065048   
H        H      0.528600000000     0.022000000000     0.498600000000     0.065048   
H        H      0.710700000000     0.868600000000     0.566500000000     0.065048   
H        H      0.503000000000     0.815700000000     0.630000000000     0.065048   
H        H      0.744500000000     0.737700000000     0.561600000000     0.065048   
H        H      0.193500000000     0.181800000000     0.686200000000     0.065048   
H        H      0.028300000000     0.177100000000     0.875900000000     0.065048   
H        H      0.133600000000     0.980900000000     0.802700000000     0.065048   
H        H      0.112200000000     0.931700000000     0.933600000000     0.065048   
H        H      0.028600000000     0.998600000000     0.522000000000     0.065048   
H        H      0.210700000000     0.066500000000     0.368600000000     0.065048   
H        H      0.003000000000     0.130000000000     0.315700000000     0.065048   
H        H      0.244500000000     0.061600000000     0.237700000000     0.065048   
H        H      0.693500000000     0.186200000000     0.681800000000     0.065048   
H        H      0.528300000000     0.375900000000     0.677100000000     0.065048   
H        H      0.633600000000     0.302700000000     0.480900000000     0.065048   
H        H      0.612200000000     0.433600000000     0.431700000000     0.065048   
H        H      0.998600000000     0.522000000000     0.028600000000     0.065048   
H        H      0.066500000000     0.368600000000     0.210700000000     0.065048   
H        H      0.130000000000     0.315700000000     0.003000000000     0.065048   
H        H      0.061600000000     0.237700000000     0.244500000000     0.065048   
H        H      0.186200000000     0.681800000000     0.693500000000     0.065048   
H        H      0.375900000000     0.677100000000     0.528300000000     0.065048   
H        H      0.302700000000     0.480900000000     0.633600000000     0.065048   
H        H      0.433600000000     0.431700000000     0.612200000000     0.065048   
H        H      0.522000000000     0.028600000000     0.998600000000     0.065048   
H        H      0.368600000000     0.210700000000     0.066500000000     0.065048   
H        H      0.315700000000     0.003000000000     0.130000000000     0.065048   
H        H      0.237700000000     0.244500000000     0.061600000000     0.065048   
H        H      0.681800000000     0.693500000000     0.186200000000     0.065048   
H        H      0.677100000000     0.528300000000     0.375900000000     0.065048   
H        H      0.480900000000     0.633600000000     0.302700000000     0.065048   
H        H      0.431700000000     0.612200000000     0.433600000000     0.065048   
C        C      0.559160000000     0.419660000000     0.942550000000     0.0400059  
C        C      0.563220000000     0.504000000000     0.921650000000     0.0400059  
C        C      0.525480000000     0.549970000000     0.973480000000     0.0400059  
C        C      0.526500000000     0.628010000000     0.954840000000     0.0400059  
C        C      0.565730000000     0.657940000000     0.882230000000     0.0400059  
C        C      0.603060000000     0.612640000000     0.830260000000     0.0400059  
C        C      0.602890000000     0.535030000000     0.850590000000     0.0400059  
C        C      0.484460000000     0.676220000000     0.011790000000     0.0400059  
C        C      0.642830000000     0.647670000000     0.752580000000     0.0400059  
C        C      0.610020000000     0.718610000000     0.714780000000     0.0400059  
C        C      0.673920000000     0.221010000000     0.035530000000     0.0400059  
C        C      0.735260000000     0.168140000000     0.074610000000     0.0400059  
C        C      0.727350000000     0.162230000000     0.154370000000     0.0400059  
C        C      0.780580000000     0.110440000000     0.190010000000     0.0400059  
C        C      0.841190000000     0.065690000000     0.150090000000     0.0400059  
C        C      0.852960000000     0.073620000000     0.071740000000     0.0400059  
C        C      0.796980000000     0.126840000000     0.034420000000     0.0400059  
C        C      0.922380000000     0.031100000000     0.029870000000     0.0400059  
C        C      0.958540000000     0.064940000000     0.957440000000     0.0400059  
C        C      0.775210000000     0.100310000000     0.274810000000     0.0400059  
C        C      0.942550000000     0.559160000000     0.419660000000     0.0400059  
C        C      0.921650000000     0.563220000000     0.504000000000     0.0400059  
C        C      0.973480000000     0.525480000000     0.549970000000     0.0400059  
C        C      0.954840000000     0.526500000000     0.628010000000     0.0400059  
C        C      0.882230000000     0.565730000000     0.657940000000     0.0400059  
C        C      0.830260000000     0.603060000000     0.612640000000     0.0400059  
C        C      0.850590000000     0.602890000000     0.535030000000     0.0400059  
C        C      0.011790000000     0.484460000000     0.676220000000     0.0400059  
C        C      0.752580000000     0.642830000000     0.647670000000     0.0400059  
C        C      0.714780000000     0.610020000000     0.718610000000     0.0400059  
C        C      0.035530000000     0.673920000000     0.221010000000     0.0400059  
C        C      0.074610000000     0.735260000000     0.168140000000     0.0400059  
C        C      0.154370000000     0.727350000000     0.162230000000     0.0400059  
C        C      0.190010000000     0.780580000000     0.110440000000     0.0400059  
C        C      0.150090000000     0.841190000000     0.065690000000     0.0400059  
C        C      0.071740000000     0.852960000000     0.073620000000     0.0400059  
C        C      0.034420000000     0.796980000000     0.126840000000     0.0400059  
C        C      0.029870000000     0.922380000000     0.031100000000     0.0400059  
C        C      0.957440000000     0.958540000000     0.064940000000     0.0400059  
C        C      0.274810000000     0.775210000000     0.100310000000     0.0400059  
C        C      0.419660000000     0.942550000000     0.559160000000     0.0400059  
C        C      0.504000000000     0.921650000000     0.563220000000     0.0400059  
C        C      0.549970000000     0.973480000000     0.525480000000     0.0400059  
C        C      0.628010000000     0.954840000000     0.526500000000     0.0400059  
C        C      0.657940000000     0.882230000000     0.565730000000     0.0400059  
C        C      0.612640000000     0.830260000000     0.603060000000     0.0400059  
C        C      0.535030000000     0.850590000000     0.602890000000     0.0400059  
C        C      0.676220000000     0.011790000000     0.484460000000     0.0400059  
C        C      0.647670000000     0.752580000000     0.642830000000     0.0400059  
C        C      0.718610000000     0.714780000000     0.610020000000     0.0400059  
C        C      0.221010000000     0.035530000000     0.673920000000     0.0400059  
C        C      0.168140000000     0.074610000000     0.735260000000     0.0400059  
C        C      0.162230000000     0.154370000000     0.727350000000     0.0400059  
C        C      0.110440000000     0.190010000000     0.780580000000     0.0400059  
C        C      0.065690000000     0.150090000000     0.841190000000     0.0400059  
C        C      0.073620000000     0.071740000000     0.852960000000     0.0400059  
C        C      0.126840000000     0.034420000000     0.796980000000     0.0400059  
C        C      0.031100000000     0.029870000000     0.922380000000     0.0400059  
C        C      0.064940000000     0.957440000000     0.958540000000     0.0400059  
C        C      0.100310000000     0.274810000000     0.775210000000     0.0400059  
C        C      0.919660000000     0.059160000000     0.442550000000     0.0400059  
C        C      0.004000000000     0.063220000000     0.421650000000     0.0400059  
C        C      0.049970000000     0.025480000000     0.473480000000     0.0400059  
C        C      0.128010000000     0.026500000000     0.454840000000     0.0400059  
C        C      0.157940000000     0.065730000000     0.382230000000     0.0400059  
C        C      0.112640000000     0.103060000000     0.330260000000     0.0400059  
C        C      0.035030000000     0.102890000000     0.350590000000     0.0400059  
C        C      0.176220000000     0.984460000000     0.511790000000     0.0400059  
C        C      0.147670000000     0.142830000000     0.252580000000     0.0400059  
C        C      0.218610000000     0.110020000000     0.214780000000     0.0400059  
C        C      0.721010000000     0.173920000000     0.535530000000     0.0400059  
C        C      0.668140000000     0.235260000000     0.574610000000     0.0400059  
C        C      0.662230000000     0.227350000000     0.654370000000     0.0400059  
C        C      0.610440000000     0.280580000000     0.690010000000     0.0400059  
C        C      0.565690000000     0.341190000000     0.650090000000     0.0400059  
C        C      0.573620000000     0.352960000000     0.571740000000     0.0400059  
C        C      0.626840000000     0.296980000000     0.534420000000     0.0400059  
C        C      0.531100000000     0.422380000000     0.529870000000     0.0400059  
C        C      0.564940000000     0.458540000000     0.457440000000     0.0400059  
C        C      0.600310000000     0.275210000000     0.774810000000     0.0400059  
C        C      0.059160000000     0.442550000000     0.919660000000     0.0400059  
C        C      0.063220000000     0.421650000000     0.004000000000     0.0400059  
C        C      0.025480000000     0.473480000000     0.049970000000     0.0400059  
C        C      0.026500000000     0.454840000000     0.128010000000     0.0400059  
C        C      0.065730000000     0.382230000000     0.157940000000     0.0400059  
C        C      0.103060000000     0.330260000000     0.112640000000     0.0400059  
C        C      0.102890000000     0.350590000000     0.035030000000     0.0400059  
C        C      0.984460000000     0.511790000000     0.176220000000     0.0400059  
C        C      0.142830000000     0.252580000000     0.147670000000     0.0400059  
C        C      0.110020000000     0.214780000000     0.218610000000     0.0400059  
C        C      0.173920000000     0.535530000000     0.721010000000     0.0400059  
C        C      0.235260000000     0.574610000000     0.668140000000     0.0400059  
C        C      0.227350000000     0.654370000000     0.662230000000     0.0400059  
C        C      0.280580000000     0.690010000000     0.610440000000     0.0400059  
C        C      0.341190000000     0.650090000000     0.565690000000     0.0400059  
C        C      0.352960000000     0.571740000000     0.573620000000     0.0400059  
C        C      0.296980000000     0.534420000000     0.626840000000     0.0400059  
C        C      0.422380000000     0.529870000000     0.531100000000     0.0400059  
C        C      0.458540000000     0.457440000000     0.564940000000     0.0400059  
C        C      0.275210000000     0.774810000000     0.600310000000     0.0400059  
C        C      0.442550000000     0.919660000000     0.059160000000     0.0400059  
C        C      0.421650000000     0.004000000000     0.063220000000     0.0400059  
C        C      0.473480000000     0.049970000000     0.025480000000     0.0400059  
C        C      0.454840000000     0.128010000000     0.026500000000     0.0400059  
C        C      0.382230000000     0.157940000000     0.065730000000     0.0400059  
C        C      0.330260000000     0.112640000000     0.103060000000     0.0400059  
C        C      0.350590000000     0.035030000000     0.102890000000     0.0400059  
C        C      0.511790000000     0.176220000000     0.984460000000     0.0400059  
C        C      0.252580000000     0.147670000000     0.142830000000     0.0400059  
C        C      0.214780000000     0.218610000000     0.110020000000     0.0400059  
C        C      0.535530000000     0.721010000000     0.173920000000     0.0400059  
C        C      0.574610000000     0.668140000000     0.235260000000     0.0400059  
C        C      0.654370000000     0.662230000000     0.227350000000     0.0400059  
C        C      0.690010000000     0.610440000000     0.280580000000     0.0400059  
C        C      0.650090000000     0.565690000000     0.341190000000     0.0400059  
C        C      0.571740000000     0.573620000000     0.352960000000     0.0400059  
C        C      0.534420000000     0.626840000000     0.296980000000     0.0400059  
C        C      0.529870000000     0.531100000000     0.422380000000     0.0400059  
C        C      0.457440000000     0.564940000000     0.458540000000     0.0400059  
C        C      0.774810000000     0.600310000000     0.275210000000     0.0400059  
O        O      0.599130000000     0.379080000000     0.896360000000    -0.273037   
O        O      0.514100000000     0.398930000000     0.003090000000    -0.273037   
O        O      0.441390000000     0.648700000000     0.070740000000    -0.273037   
O        O      0.491620000000     0.744900000000     0.000180000000    -0.273037   
O        O      0.744530000000     0.157910000000     0.304920000000    -0.273037   
O        O      0.802170000000     0.037390000000     0.311610000000    -0.273037   
O        O      0.682620000000     0.221050000000     0.966130000000    -0.273037   
O        O      0.619640000000     0.259530000000     0.074210000000    -0.273037   
O        O      0.896360000000     0.599130000000     0.379080000000    -0.273037   
O        O      0.003090000000     0.514100000000     0.398930000000    -0.273037   
O        O      0.070740000000     0.441390000000     0.648700000000    -0.273037   
O        O      0.000180000000     0.491620000000     0.744900000000    -0.273037   
O        O      0.304920000000     0.744530000000     0.157910000000    -0.273037   
O        O      0.311610000000     0.802170000000     0.037390000000    -0.273037   
O        O      0.966130000000     0.682620000000     0.221050000000    -0.273037   
O        O      0.074210000000     0.619640000000     0.259530000000    -0.273037   
O        O      0.379080000000     0.896360000000     0.599130000000    -0.273037   
O        O      0.398930000000     0.003090000000     0.514100000000    -0.273037   
O        O      0.648700000000     0.070740000000     0.441390000000    -0.273037   
O        O      0.744900000000     0.000180000000     0.491620000000    -0.273037   
O        O      0.157910000000     0.304920000000     0.744530000000    -0.273037   
O        O      0.037390000000     0.311610000000     0.802170000000    -0.273037   
O        O      0.221050000000     0.966130000000     0.682620000000    -0.273037   
O        O      0.259530000000     0.074210000000     0.619640000000    -0.273037   
O        O      0.879080000000     0.099130000000     0.396360000000    -0.273037   
O        O      0.898930000000     0.014100000000     0.503090000000    -0.273037   
O        O      0.148700000000     0.941390000000     0.570740000000    -0.273037   
O        O      0.244900000000     0.991620000000     0.500180000000    -0.273037   
O        O      0.657910000000     0.244530000000     0.804920000000    -0.273037   
O        O      0.537390000000     0.302170000000     0.811610000000    -0.273037   
O        O      0.721050000000     0.182620000000     0.466130000000    -0.273037   
O        O      0.759530000000     0.119640000000     0.574210000000    -0.273037   
O        O      0.099130000000     0.396360000000     0.879080000000    -0.273037   
O        O      0.014100000000     0.503090000000     0.898930000000    -0.273037   
O        O      0.941390000000     0.570740000000     0.148700000000    -0.273037   
O        O      0.991620000000     0.500180000000     0.244900000000    -0.273037   
O        O      0.244530000000     0.804920000000     0.657910000000    -0.273037   
O        O      0.302170000000     0.811610000000     0.537390000000    -0.273037   
O        O      0.182620000000     0.466130000000     0.721050000000    -0.273037   
O        O      0.119640000000     0.574210000000     0.759530000000    -0.273037   
O        O      0.396360000000     0.879080000000     0.099130000000    -0.273037   
O        O      0.503090000000     0.898930000000     0.014100000000    -0.273037   
O        O      0.570740000000     0.148700000000     0.941390000000    -0.273037   
O        O      0.500180000000     0.244900000000     0.991620000000    -0.273037   
O        O      0.804920000000     0.657910000000     0.244530000000    -0.273037   
O        O      0.811610000000     0.537390000000     0.302170000000    -0.273037   
O        O      0.466130000000     0.721050000000     0.182620000000    -0.273037   
O        O      0.574210000000     0.759530000000     0.119640000000    -0.273037   


