data_QUQPUO_original

_audit_creation_method RASPA-1.0
_audit_creation_date 2022-1-31
_audit_author_name 'Felipe Lopes de Oliveira <felipe.lopes.oliveira@ibm.com>'

_cell_length_a    7.8366
_cell_length_b    14.7632
_cell_length_c    17.4153
_cell_angle_alpha 90
_cell_angle_beta  90
_cell_angle_gamma 95.439
_cell_volume      2005.76

_symmetry_cell_setting          triclinic
_symmetry_space_group_name_Hall 'P 1'
_symmetry_space_group_name_H-M  'P 1'
_symmetry_Int_Tables_number     1

_symmetry_equiv_pos_as_xyz 'x,y,z'

loop_
_atom_site_label
_atom_site_type_symbol
_atom_site_fract_x
_atom_site_fract_y
_atom_site_fract_z
_atom_site_charge
Zn       Zn     0.785840000000     0.762670000000     0.753030000000     0.372857   
Zn       Zn     0.714160000000     0.737330000000     0.253030000000     0.372857   
Zn       Zn     0.214160000000     0.237330000000     0.246970000000     0.372857   
Zn       Zn     0.285840000000     0.262670000000     0.746970000000     0.372857   
H        H      0.436400000000     0.129300000000     0.564100000000     0.0580333  
H        H      0.919100000000     0.558200000000     0.616400000000     0.0580333  
H        H      0.395600000000     0.637200000000     0.005400000000     0.0580333  
H        H      0.939500000000     0.570600000000     0.385900000000     0.0580333  
H        H      0.593700000000     0.878500000000     0.566600000000     0.0580333  
H        H      0.417000000000     0.720900000000     0.894300000000     0.0580333  
H        H      0.615800000000     0.523200000000     0.785400000000     0.0580333  
H        H      0.601400000000     0.436000000000     0.894400000000     0.0580333  
H        H      0.063600000000     0.370700000000     0.064100000000     0.0580333  
H        H      0.580900000000     0.941800000000     0.116400000000     0.0580333  
H        H      0.104400000000     0.862800000000     0.505400000000     0.0580333  
H        H      0.560500000000     0.929400000000     0.885900000000     0.0580333  
H        H      0.906300000000     0.621500000000     0.066600000000     0.0580333  
H        H      0.083000000000     0.779100000000     0.394300000000     0.0580333  
H        H      0.884200000000     0.976800000000     0.285400000000     0.0580333  
H        H      0.898600000000     0.064000000000     0.394400000000     0.0580333  
H        H      0.563600000000     0.870700000000     0.435900000000     0.0580333  
H        H      0.080900000000     0.441800000000     0.383600000000     0.0580333  
H        H      0.604400000000     0.362800000000     0.994600000000     0.0580333  
H        H      0.060500000000     0.429400000000     0.614100000000     0.0580333  
H        H      0.406300000000     0.121500000000     0.433400000000     0.0580333  
H        H      0.583000000000     0.279100000000     0.105700000000     0.0580333  
H        H      0.384200000000     0.476800000000     0.214600000000     0.0580333  
H        H      0.398600000000     0.564000000000     0.105600000000     0.0580333  
H        H      0.936400000000     0.629300000000     0.935900000000     0.0580333  
H        H      0.419100000000     0.058200000000     0.883600000000     0.0580333  
H        H      0.895600000000     0.137200000000     0.494600000000     0.0580333  
H        H      0.439500000000     0.070600000000     0.114100000000     0.0580333  
H        H      0.093700000000     0.378500000000     0.933400000000     0.0580333  
H        H      0.917000000000     0.220900000000     0.605700000000     0.0580333  
H        H      0.115800000000     0.023200000000     0.714600000000     0.0580333  
H        H      0.101400000000     0.936000000000     0.605600000000     0.0580333  
C        C      0.911100000000     0.579320000000     0.501590000000     0.00343192 
C        C      0.818700000000     0.661860000000     0.502660000000     0.00343192 
C        C      0.479200000000     0.083870000000     0.704100000000     0.00343192 
C        C      0.519300000000     0.005190000000     0.580900000000     0.00343192 
C        C      0.606500000000     0.941130000000     0.705560000000     0.00343192 
C        C      0.462400000000     0.077080000000     0.538560000000     0.00343192 
C        C      0.752700000000     0.692530000000     0.434040000000     0.00343192 
C        C      0.951000000000     0.535010000000     0.569420000000     0.00343192 
C        C      0.502300000000     0.526930000000     0.964180000000     0.00343192 
C        C      0.795300000000     0.706660000000     0.572150000000     0.00343192 
C        C      0.537100000000     0.010460000000     0.665010000000     0.00343192 
C        C      0.443700000000     0.613560000000     0.961880000000     0.00343192 
C        C      0.963300000000     0.542350000000     0.431880000000     0.00343192 
C        C      0.556200000000     0.927600000000     0.540140000000     0.00343192 
C        C      0.457200000000     0.663650000000     0.895300000000     0.00343192 
C        C      0.575300000000     0.546720000000     0.830690000000     0.00343192 
C        C      0.565400000000     0.494230000000     0.895870000000     0.00343192 
C        C      0.588900000000     0.920680000000     0.001590000000     0.00343192 
C        C      0.681300000000     0.838140000000     0.002660000000     0.00343192 
C        C      0.020800000000     0.416130000000     0.204100000000     0.00343192 
C        C      0.980700000000     0.494810000000     0.080900000000     0.00343192 
C        C      0.893500000000     0.558870000000     0.205560000000     0.00343192 
C        C      0.037600000000     0.422920000000     0.038560000000     0.00343192 
C        C      0.747300000000     0.807470000000     0.934040000000     0.00343192 
C        C      0.549000000000     0.964990000000     0.069420000000     0.00343192 
C        C      0.997700000000     0.973070000000     0.464180000000     0.00343192 
C        C      0.704700000000     0.793340000000     0.072150000000     0.00343192 
C        C      0.962900000000     0.489540000000     0.165010000000     0.00343192 
C        C      0.056300000000     0.886440000000     0.461880000000     0.00343192 
C        C      0.536700000000     0.957650000000     0.931880000000     0.00343192 
C        C      0.943800000000     0.572400000000     0.040140000000     0.00343192 
C        C      0.042800000000     0.836350000000     0.395300000000     0.00343192 
C        C      0.924700000000     0.953280000000     0.330690000000     0.00343192 
C        C      0.934600000000     0.005770000000     0.395870000000     0.00343192 
C        C      0.088900000000     0.420680000000     0.498410000000     0.00343192 
C        C      0.181300000000     0.338140000000     0.497340000000     0.00343192 
C        C      0.520800000000     0.916130000000     0.295900000000     0.00343192 
C        C      0.480700000000     0.994810000000     0.419100000000     0.00343192 
C        C      0.393500000000     0.058870000000     0.294440000000     0.00343192 
C        C      0.537600000000     0.922920000000     0.461440000000     0.00343192 
C        C      0.247300000000     0.307470000000     0.565960000000     0.00343192 
C        C      0.049000000000     0.464990000000     0.430580000000     0.00343192 
C        C      0.497700000000     0.473070000000     0.035820000000     0.00343192 
C        C      0.204700000000     0.293340000000     0.427850000000     0.00343192 
C        C      0.462900000000     0.989540000000     0.334990000000     0.00343192 
C        C      0.556300000000     0.386440000000     0.038120000000     0.00343192 
C        C      0.036700000000     0.457650000000     0.568120000000     0.00343192 
C        C      0.443800000000     0.072400000000     0.459860000000     0.00343192 
C        C      0.542800000000     0.336350000000     0.104700000000     0.00343192 
C        C      0.424700000000     0.453280000000     0.169310000000     0.00343192 
C        C      0.434600000000     0.505770000000     0.104130000000     0.00343192 
C        C      0.411100000000     0.079320000000     0.998410000000     0.00343192 
C        C      0.318700000000     0.161860000000     0.997340000000     0.00343192 
C        C      0.979200000000     0.583870000000     0.795900000000     0.00343192 
C        C      0.019300000000     0.505190000000     0.919100000000     0.00343192 
C        C      0.106500000000     0.441130000000     0.794440000000     0.00343192 
C        C      0.962400000000     0.577080000000     0.961440000000     0.00343192 
C        C      0.252700000000     0.192530000000     0.065960000000     0.00343192 
C        C      0.451000000000     0.035010000000     0.930580000000     0.00343192 
C        C      0.002300000000     0.026930000000     0.535820000000     0.00343192 
C        C      0.295300000000     0.206660000000     0.927850000000     0.00343192 
C        C      0.037100000000     0.510460000000     0.834990000000     0.00343192 
C        C      0.943700000000     0.113560000000     0.538120000000     0.00343192 
C        C      0.463300000000     0.042350000000     0.068120000000     0.00343192 
C        C      0.056200000000     0.427600000000     0.959860000000     0.00343192 
C        C      0.957200000000     0.163650000000     0.604700000000     0.00343192 
C        C      0.075300000000     0.046720000000     0.669310000000     0.00343192 
C        C      0.065400000000     0.994230000000     0.604130000000     0.00343192 
N        N      0.664800000000     0.880680000000     0.734440000000    -0.148391   
N        N      0.782000000000     0.737520000000     0.632750000000    -0.148391   
N        N      0.527200000000     0.631650000000     0.831460000000    -0.148391   
N        N      0.702000000000     0.711360000000     0.373970000000    -0.148391   
N        N      0.425200000000     0.147280000000     0.730800000000    -0.148391   
N        N      0.835200000000     0.619320000000     0.234440000000    -0.148391   
N        N      0.718000000000     0.762480000000     0.132750000000    -0.148391   
N        N      0.972800000000     0.868350000000     0.331460000000    -0.148391   
N        N      0.798000000000     0.788640000000     0.873970000000    -0.148391   
N        N      0.074800000000     0.352720000000     0.230800000000    -0.148391   
N        N      0.335200000000     0.119320000000     0.265560000000    -0.148391   
N        N      0.218000000000     0.262480000000     0.367250000000    -0.148391   
N        N      0.472800000000     0.368350000000     0.168540000000    -0.148391   
N        N      0.298000000000     0.288640000000     0.626030000000    -0.148391   
N        N      0.574800000000     0.852720000000     0.269200000000    -0.148391   
N        N      0.164800000000     0.380680000000     0.765560000000    -0.148391   
N        N      0.282000000000     0.237520000000     0.867250000000    -0.148391   
N        N      0.027200000000     0.131650000000     0.668540000000    -0.148391   
N        N      0.202000000000     0.211360000000     0.126030000000    -0.148391   
N        N      0.925200000000     0.647280000000     0.769200000000    -0.148391   
O        O      0.546900000000     0.683910000000     0.769100000000    -0.153511   
O        O      0.953100000000     0.816090000000     0.269100000000    -0.153511   
O        O      0.453100000000     0.316090000000     0.230900000000    -0.153511   
O        O      0.046900000000     0.183910000000     0.730900000000    -0.153511   


