data_QUQPOI_original

_audit_creation_method RASPA-1.0
_audit_creation_date 2022-1-29
_audit_author_name 'Felipe Lopes de Oliveira <felipe.lopes.oliveira@ibm.com>'

_cell_length_a    7.3937
_cell_length_b    10.9623
_cell_length_c    12.6331
_cell_angle_alpha 109.51
_cell_angle_beta  90
_cell_angle_gamma 90
_cell_volume      965.146

_symmetry_cell_setting          triclinic
_symmetry_space_group_name_Hall 'P 1'
_symmetry_space_group_name_H-M  'P 1'
_symmetry_Int_Tables_number     1

_symmetry_equiv_pos_as_xyz 'x,y,z'

loop_
_atom_site_label
_atom_site_type_symbol
_atom_site_fract_x
_atom_site_fract_y
_atom_site_fract_z
_atom_site_charge
Zn       Zn     0.000000000000     0.000000000000     0.000000000000     0.374591   
H        H      0.229700000000     0.610200000000     0.019500000000     0.0514144  
H        H      0.229700000000     0.389800000000     0.980500000000     0.0514144  
H        H      0.770300000000     0.389800000000     0.980500000000     0.0514144  
H        H      0.770300000000     0.610200000000     0.019500000000     0.0514144  
H        H      0.000000000000     0.962600000000     0.750000000000     0.0514144  
H        H      0.000000000000     0.810100000000     0.575900000000     0.0514144  
H        H      0.000000000000     0.538000000000     0.722000000000     0.0514144  
H        H      0.000000000000     0.700600000000     0.896200000000     0.0514144  
H        H      0.000000000000     0.037400000000     0.250000000000     0.0514144  
H        H      0.000000000000     0.189900000000     0.424100000000     0.0514144  
H        H      0.000000000000     0.462000000000     0.278000000000     0.0514144  
H        H      0.000000000000     0.299400000000     0.103800000000     0.0514144  
C        C      0.340500000000     0.845310000000     0.054300000000    -0.000242245
C        C      0.339200000000     0.566400000000     0.011900000000    -0.000242245
C        C      0.340500000000     0.154690000000     0.945700000000    -0.000242245
C        C      0.339200000000     0.433600000000     0.988100000000    -0.000242245
C        C      0.659500000000     0.154690000000     0.945700000000    -0.000242245
C        C      0.660800000000     0.433600000000     0.988100000000    -0.000242245
C        C      0.659500000000     0.845310000000     0.054300000000    -0.000242245
C        C      0.660800000000     0.566400000000     0.011900000000    -0.000242245
C        C      0.500000000000     0.777200000000     0.047400000000    -0.000242245
C        C      0.500000000000     0.635600000000     0.024700000000    -0.000242245
C        C      0.500000000000     0.222800000000     0.952600000000    -0.000242245
C        C      0.500000000000     0.364400000000     0.975300000000    -0.000242245
C        C      0.000000000000     0.875800000000     0.744500000000    -0.000242245
C        C      0.000000000000     0.784500000000     0.639100000000    -0.000242245
C        C      0.000000000000     0.654600000000     0.626900000000    -0.000242245
C        C      0.000000000000     0.562000000000     0.510800000000    -0.000242245
C        C      0.000000000000     0.624200000000     0.725900000000    -0.000242245
C        C      0.000000000000     0.722500000000     0.831200000000    -0.000242245
C        C      0.000000000000     0.124200000000     0.255500000000    -0.000242245
C        C      0.000000000000     0.215500000000     0.360900000000    -0.000242245
C        C      0.000000000000     0.345400000000     0.373100000000    -0.000242245
C        C      0.000000000000     0.438000000000     0.489200000000    -0.000242245
C        C      0.000000000000     0.375800000000     0.274100000000    -0.000242245
C        C      0.000000000000     0.277500000000     0.168800000000    -0.000242245
N        N      0.205800000000     0.900830000000     0.060200000000    -0.164292   
N        N      0.205800000000     0.099170000000     0.939800000000    -0.164292   
N        N      0.794200000000     0.099170000000     0.939800000000    -0.164292   
N        N      0.794200000000     0.900830000000     0.060200000000    -0.164292   
N        N      0.000000000000     0.848000000000     0.839300000000    -0.164292   
N        N      0.000000000000     0.152000000000     0.160700000000    -0.164292   


