data_RAHBUZ_original

_audit_creation_method RASPA-1.0
_audit_creation_date 2022-1-31
_audit_author_name 'Felipe Lopes de Oliveira <felipe.lopes.oliveira@ibm.com>'

_cell_length_a    10.1209
_cell_length_b    13.9753
_cell_length_c    18.0091
_cell_angle_alpha 90
_cell_angle_beta  90
_cell_angle_gamma 90
_cell_volume      2547.25

_symmetry_cell_setting          triclinic
_symmetry_space_group_name_Hall 'P 1'
_symmetry_space_group_name_H-M  'P 1'
_symmetry_Int_Tables_number     1

_symmetry_equiv_pos_as_xyz 'x,y,z'

loop_
_atom_site_label
_atom_site_type_symbol
_atom_site_fract_x
_atom_site_fract_y
_atom_site_fract_z
_atom_site_charge
Zn       Zn     0.555200000000     0.476480000000     0.587430000000     0.458185   
Zn       Zn     0.760200000000     0.635900000000     0.659090000000     0.458185   
Zn       Zn     0.944800000000     0.523520000000     0.087430000000     0.458185   
Zn       Zn     0.739800000000     0.364100000000     0.159090000000     0.458185   
Zn       Zn     0.444800000000     0.976480000000     0.912570000000     0.458185   
Zn       Zn     0.239800000000     0.135900000000     0.840910000000     0.458185   
Zn       Zn     0.055200000000     0.023520000000     0.412570000000     0.458185   
Zn       Zn     0.260200000000     0.864100000000     0.340910000000     0.458185   
H        H      0.390700000000     0.774200000000     0.760300000000     0.103927   
H        H      0.465700000000     0.842400000000     0.702500000000     0.103927   
H        H      0.234100000000     0.646100000000     0.712600000000     0.103927   
H        H      0.211800000000     0.634900000000     0.624800000000     0.103927   
H        H      0.333000000000     0.742600000000     0.534400000000     0.103927   
H        H      0.431800000000     0.823200000000     0.565000000000     0.103927   
H        H      0.063400000000     0.871600000000     0.733400000000     0.103927   
H        H      0.142900000000     0.792100000000     0.779500000000     0.103927   
H        H      0.181900000000     0.978700000000     0.644800000000     0.103927   
H        H      0.338500000000     0.969700000000     0.633200000000     0.103927   
H        H      0.085200000000     0.760100000000     0.553900000000     0.103927   
H        H      0.028900000000     0.852500000000     0.596200000000     0.103927   
H        H      0.109300000000     0.225800000000     0.260300000000     0.103927   
H        H      0.034300000000     0.157600000000     0.202500000000     0.103927   
H        H      0.265900000000     0.353900000000     0.212600000000     0.103927   
H        H      0.288200000000     0.365100000000     0.124800000000     0.103927   
H        H      0.167000000000     0.257400000000     0.034400000000     0.103927   
H        H      0.068200000000     0.176800000000     0.065000000000     0.103927   
H        H      0.436600000000     0.128400000000     0.233400000000     0.103927   
H        H      0.357100000000     0.207900000000     0.279500000000     0.103927   
H        H      0.318100000000     0.021300000000     0.144800000000     0.103927   
H        H      0.161500000000     0.030300000000     0.133200000000     0.103927   
H        H      0.414800000000     0.239900000000     0.053900000000     0.103927   
H        H      0.471100000000     0.147500000000     0.096200000000     0.103927   
H        H      0.609300000000     0.274200000000     0.739700000000     0.103927   
H        H      0.534300000000     0.342400000000     0.797500000000     0.103927   
H        H      0.765900000000     0.146100000000     0.787400000000     0.103927   
H        H      0.788200000000     0.134900000000     0.875200000000     0.103927   
H        H      0.667000000000     0.242600000000     0.965600000000     0.103927   
H        H      0.568200000000     0.323200000000     0.935000000000     0.103927   
H        H      0.936600000000     0.371600000000     0.766600000000     0.103927   
H        H      0.857100000000     0.292100000000     0.720500000000     0.103927   
H        H      0.818100000000     0.478700000000     0.855200000000     0.103927   
H        H      0.661500000000     0.469700000000     0.866800000000     0.103927   
H        H      0.914800000000     0.260100000000     0.946100000000     0.103927   
H        H      0.971100000000     0.352500000000     0.903800000000     0.103927   
H        H      0.890700000000     0.725800000000     0.239700000000     0.103927   
H        H      0.965700000000     0.657600000000     0.297500000000     0.103927   
H        H      0.734100000000     0.853900000000     0.287400000000     0.103927   
H        H      0.711800000000     0.865100000000     0.375200000000     0.103927   
H        H      0.833000000000     0.757400000000     0.465600000000     0.103927   
H        H      0.931800000000     0.676800000000     0.435000000000     0.103927   
H        H      0.563400000000     0.628400000000     0.266600000000     0.103927   
H        H      0.642900000000     0.707900000000     0.220500000000     0.103927   
H        H      0.681900000000     0.521300000000     0.355200000000     0.103927   
H        H      0.838500000000     0.530300000000     0.366800000000     0.103927   
H        H      0.585200000000     0.739900000000     0.446100000000     0.103927   
H        H      0.528900000000     0.647500000000     0.403800000000     0.103927   
C        C      0.472300000000     0.665600000000     0.644400000000     0.0111506  
C        C      0.293800000000     0.950500000000     0.778400000000     0.0111506  
C        C      0.981400000000     0.700500000000     0.677300000000     0.0111506  
C        C      0.214500000000     0.911400000000     0.503800000000     0.0111506  
C        C      0.357800000000     0.735000000000     0.650600000000     0.0111506  
C        C      0.268000000000     0.879600000000     0.716300000000     0.0111506  
C        C      0.113300000000     0.752900000000     0.668800000000     0.0111506  
C        C      0.233700000000     0.860300000000     0.578300000000     0.0111506  
C        C      0.382100000000     0.807800000000     0.712200000000     0.0111506  
C        C      0.227900000000     0.681600000000     0.665100000000     0.0111506  
C        C      0.348000000000     0.788900000000     0.575100000000     0.0111506  
C        C      0.137700000000     0.825600000000     0.731100000000     0.0111506  
C        C      0.256600000000     0.933000000000     0.642500000000     0.0111506  
C        C      0.103100000000     0.806400000000     0.594300000000     0.0111506  
C        C      0.027700000000     0.334400000000     0.144400000000     0.0111506  
C        C      0.206200000000     0.049500000000     0.278400000000     0.0111506  
C        C      0.518600000000     0.299500000000     0.177300000000     0.0111506  
C        C      0.285500000000     0.088600000000     0.003800000000     0.0111506  
C        C      0.142200000000     0.265000000000     0.150600000000     0.0111506  
C        C      0.232000000000     0.120400000000     0.216300000000     0.0111506  
C        C      0.386700000000     0.247100000000     0.168800000000     0.0111506  
C        C      0.266300000000     0.139700000000     0.078300000000     0.0111506  
C        C      0.117900000000     0.192200000000     0.212200000000     0.0111506  
C        C      0.272100000000     0.318400000000     0.165100000000     0.0111506  
C        C      0.152000000000     0.211100000000     0.075100000000     0.0111506  
C        C      0.362300000000     0.174400000000     0.231100000000     0.0111506  
C        C      0.243400000000     0.067000000000     0.142500000000     0.0111506  
C        C      0.396900000000     0.193600000000     0.094300000000     0.0111506  
C        C      0.527700000000     0.165600000000     0.855600000000     0.0111506  
C        C      0.706200000000     0.450500000000     0.721600000000     0.0111506  
C        C      0.018600000000     0.200500000000     0.822700000000     0.0111506  
C        C      0.785500000000     0.411400000000     0.996200000000     0.0111506  
C        C      0.642200000000     0.235000000000     0.849400000000     0.0111506  
C        C      0.732000000000     0.379600000000     0.783700000000     0.0111506  
C        C      0.886700000000     0.252900000000     0.831200000000     0.0111506  
C        C      0.766300000000     0.360300000000     0.921700000000     0.0111506  
C        C      0.617900000000     0.307800000000     0.787800000000     0.0111506  
C        C      0.772100000000     0.181600000000     0.834900000000     0.0111506  
C        C      0.652000000000     0.288900000000     0.924900000000     0.0111506  
C        C      0.862300000000     0.325600000000     0.768900000000     0.0111506  
C        C      0.743400000000     0.433000000000     0.857500000000     0.0111506  
C        C      0.896900000000     0.306400000000     0.905700000000     0.0111506  
C        C      0.972300000000     0.834400000000     0.355600000000     0.0111506  
C        C      0.793800000000     0.549500000000     0.221600000000     0.0111506  
C        C      0.481400000000     0.799500000000     0.322700000000     0.0111506  
C        C      0.714500000000     0.588600000000     0.496200000000     0.0111506  
C        C      0.857800000000     0.765000000000     0.349400000000     0.0111506  
C        C      0.768000000000     0.620400000000     0.283700000000     0.0111506  
C        C      0.613300000000     0.747100000000     0.331200000000     0.0111506  
C        C      0.733700000000     0.639700000000     0.421700000000     0.0111506  
C        C      0.882100000000     0.692200000000     0.287800000000     0.0111506  
C        C      0.727900000000     0.818400000000     0.334900000000     0.0111506  
C        C      0.848000000000     0.711100000000     0.424900000000     0.0111506  
C        C      0.637700000000     0.674400000000     0.268900000000     0.0111506  
C        C      0.756600000000     0.567000000000     0.357500000000     0.0111506  
C        C      0.603100000000     0.693600000000     0.405700000000     0.0111506  
O        O      0.449100000000     0.581800000000     0.625100000000    -0.28995    
O        O      0.586000000000     0.699800000000     0.658200000000    -0.28995    
O        O      0.336900000000     0.915100000000     0.838800000000    -0.28995    
O        O      0.270800000000     0.035900000000     0.767600000000    -0.28995    
O        O      0.877200000000     0.748300000000     0.686700000000    -0.28995    
O        O      0.977000000000     0.611700000000     0.669200000000    -0.28995    
O        O      0.133800000000     0.979300000000     0.503500000000    -0.28995    
O        O      0.274600000000     0.881100000000     0.449300000000    -0.28995    
O        O      0.050900000000     0.418200000000     0.125100000000    -0.28995    
O        O      0.914000000000     0.300200000000     0.158200000000    -0.28995    
O        O      0.163100000000     0.084900000000     0.338800000000    -0.28995    
O        O      0.229200000000     0.964100000000     0.267600000000    -0.28995    
O        O      0.622800000000     0.251700000000     0.186700000000    -0.28995    
O        O      0.523000000000     0.388300000000     0.169200000000    -0.28995    
O        O      0.366200000000     0.020700000000     0.003500000000    -0.28995    
O        O      0.225400000000     0.118900000000     0.949300000000    -0.28995    
O        O      0.550900000000     0.081800000000     0.874900000000    -0.28995    
O        O      0.414000000000     0.199800000000     0.841800000000    -0.28995    
O        O      0.663100000000     0.415100000000     0.661200000000    -0.28995    
O        O      0.729200000000     0.535900000000     0.732400000000    -0.28995    
O        O      0.122800000000     0.248300000000     0.813300000000    -0.28995    
O        O      0.023000000000     0.111700000000     0.830800000000    -0.28995    
O        O      0.866200000000     0.479300000000     0.996500000000    -0.28995    
O        O      0.725400000000     0.381100000000     0.050700000000    -0.28995    
O        O      0.949100000000     0.918200000000     0.374900000000    -0.28995    
O        O      0.086000000000     0.800200000000     0.341800000000    -0.28995    
O        O      0.836900000000     0.584900000000     0.161200000000    -0.28995    
O        O      0.770800000000     0.464100000000     0.232400000000    -0.28995    
O        O      0.377200000000     0.751700000000     0.313300000000    -0.28995    
O        O      0.477000000000     0.888300000000     0.330800000000    -0.28995    
O        O      0.633800000000     0.520700000000     0.496500000000    -0.28995    
O        O      0.774600000000     0.618900000000     0.550700000000    -0.28995    


