data_RATCUL01_original

_audit_creation_method RASPA-1.0
_audit_creation_date 2022-1-30
_audit_author_name 'Felipe Lopes de Oliveira <felipe.lopes.oliveira@ibm.com>'

_cell_length_a    9.9598
_cell_length_b    11.4702
_cell_length_c    14.5909
_cell_angle_alpha 91.1767
_cell_angle_beta  90
_cell_angle_gamma 90
_cell_volume      1666.53

_symmetry_cell_setting          triclinic
_symmetry_space_group_name_Hall 'P 1'
_symmetry_space_group_name_H-M  'P 1'
_symmetry_Int_Tables_number     1

_symmetry_equiv_pos_as_xyz 'x,y,z'

loop_
_atom_site_label
_atom_site_type_symbol
_atom_site_fract_x
_atom_site_fract_y
_atom_site_fract_z
_atom_site_charge
Fe       Fe     0.922710000000     0.754920000000     0.133080000000     0.917527   
Fe       Fe     0.888200000000     0.260250000000     0.687970000000     0.917527   
Fe       Fe     0.422710000000     0.745080000000     0.366920000000     0.917527   
Fe       Fe     0.388200000000     0.239750000000     0.812030000000     0.917527   
Fe       Fe     0.077290000000     0.245080000000     0.866920000000     0.917527   
Fe       Fe     0.111800000000     0.739750000000     0.312030000000     0.917527   
Fe       Fe     0.577290000000     0.254920000000     0.633080000000     0.917527   
Fe       Fe     0.611800000000     0.760250000000     0.187970000000     0.917527   
Fe       Fe     0.000000000000     0.500000000000     0.000000000000     0.917527   
Fe       Fe     0.500000000000     0.000000000000     0.500000000000     0.917527   
Fe       Fe     0.000000000000     0.000000000000     0.000000000000     0.917527   
Fe       Fe     0.500000000000     0.500000000000     0.500000000000     0.917527   
H        H      0.755000000000     0.854900000000     0.368900000000    -0.0870207  
H        H      0.041000000000     0.474800000000     0.264800000000    -0.0870207  
H        H      0.615000000000     0.564500000000     0.041500000000    -0.0870207  
H        H      0.197000000000     0.978300000000     0.236300000000    -0.0870207  
H        H      0.153000000000     0.698800000000     0.924800000000    -0.0870207  
H        H      0.708000000000     0.993100000000     0.007100000000    -0.0870207  
H        H      0.255000000000     0.645100000000     0.131100000000    -0.0870207  
H        H      0.541000000000     0.025200000000     0.235200000000    -0.0870207  
H        H      0.115000000000     0.935500000000     0.458500000000    -0.0870207  
H        H      0.697000000000     0.521700000000     0.263700000000    -0.0870207  
H        H      0.653000000000     0.801200000000     0.575200000000    -0.0870207  
H        H      0.208000000000     0.506900000000     0.492900000000    -0.0870207  
H        H      0.245000000000     0.145100000000     0.631100000000    -0.0870207  
H        H      0.959000000000     0.525200000000     0.735200000000    -0.0870207  
H        H      0.385000000000     0.435500000000     0.958500000000    -0.0870207  
H        H      0.803000000000     0.021700000000     0.763700000000    -0.0870207  
H        H      0.847000000000     0.301200000000     0.075200000000    -0.0870207  
H        H      0.292000000000     0.006900000000     0.992900000000    -0.0870207  
H        H      0.745000000000     0.354900000000     0.868900000000    -0.0870207  
H        H      0.459000000000     0.974800000000     0.764800000000    -0.0870207  
H        H      0.885000000000     0.064500000000     0.541500000000    -0.0870207  
H        H      0.303000000000     0.478300000000     0.736300000000    -0.0870207  
H        H      0.347000000000     0.198800000000     0.424800000000    -0.0870207  
H        H      0.792000000000     0.493100000000     0.507100000000    -0.0870207  
C        C      0.829100000000     0.827800000000     0.331700000000     0.46935    
C        C      0.016700000000     0.517530000000     0.211430000000     0.46935    
C        C      0.712500000000     0.576140000000     0.046240000000     0.46935    
C        C      0.131600000000     0.952390000000     0.186890000000     0.46935    
C        C      0.102300000000     0.743610000000     0.967310000000     0.46935    
C        C      0.722900000000     0.929310000000     0.050910000000     0.46935    
C        C      0.329100000000     0.672200000000     0.168300000000     0.46935    
C        C      0.516700000000     0.982470000000     0.288570000000     0.46935    
C        C      0.212500000000     0.923860000000     0.453760000000     0.46935    
C        C      0.631600000000     0.547610000000     0.313110000000     0.46935    
C        C      0.602300000000     0.756390000000     0.532690000000     0.46935    
C        C      0.222900000000     0.570690000000     0.449090000000     0.46935    
C        C      0.170900000000     0.172200000000     0.668300000000     0.46935    
C        C      0.983300000000     0.482470000000     0.788570000000     0.46935    
C        C      0.287500000000     0.423860000000     0.953760000000     0.46935    
C        C      0.868400000000     0.047610000000     0.813110000000     0.46935    
C        C      0.897700000000     0.256390000000     0.032690000000     0.46935    
C        C      0.277100000000     0.070690000000     0.949090000000     0.46935    
C        C      0.670900000000     0.327800000000     0.831700000000     0.46935    
C        C      0.483300000000     0.017530000000     0.711430000000     0.46935    
C        C      0.787500000000     0.076140000000     0.546240000000     0.46935    
C        C      0.368400000000     0.452390000000     0.686890000000     0.46935    
C        C      0.397700000000     0.243610000000     0.467310000000     0.46935    
C        C      0.777100000000     0.429310000000     0.550910000000     0.46935    
O        O      0.802170000000     0.805510000000     0.247230000000    -0.420547   
O        O      0.939320000000     0.814170000000     0.369370000000    -0.420547   
O        O      0.008220000000     0.627120000000     0.218970000000    -0.420547   
O        O      0.998880000000     0.458370000000     0.141040000000    -0.420547   
O        O      0.744260000000     0.652520000000     0.106970000000    -0.420547   
O        O      0.791150000000     0.517930000000     0.998020000000    -0.420547   
O        O      0.085110000000     0.850080000000     0.196640000000    -0.420547   
O        O      0.105380000000     0.018990000000     0.124220000000    -0.420547   
O        O      0.027500000000     0.686010000000     0.022420000000    -0.420547   
O        O      0.109860000000     0.850140000000     0.963320000000    -0.420547   
O        O      0.844530000000     0.897390000000     0.061270000000    -0.420547   
O        O      0.623480000000     0.889180000000     0.091170000000    -0.420547   
O        O      0.302170000000     0.694490000000     0.252770000000    -0.420547   
O        O      0.439320000000     0.685830000000     0.130630000000    -0.420547   
O        O      0.508220000000     0.872880000000     0.281030000000    -0.420547   
O        O      0.498880000000     0.041630000000     0.358960000000    -0.420547   
O        O      0.244260000000     0.847480000000     0.393030000000    -0.420547   
O        O      0.291150000000     0.982070000000     0.501980000000    -0.420547   
O        O      0.585110000000     0.649920000000     0.303360000000    -0.420547   
O        O      0.605380000000     0.481010000000     0.375780000000    -0.420547   
O        O      0.527500000000     0.813990000000     0.477580000000    -0.420547   
O        O      0.609860000000     0.649860000000     0.536680000000    -0.420547   
O        O      0.344530000000     0.602610000000     0.438730000000    -0.420547   
O        O      0.123480000000     0.610820000000     0.408830000000    -0.420547   
O        O      0.197830000000     0.194490000000     0.752770000000    -0.420547   
O        O      0.060680000000     0.185830000000     0.630630000000    -0.420547   
O        O      0.991780000000     0.372880000000     0.781030000000    -0.420547   
O        O      0.001120000000     0.541630000000     0.858960000000    -0.420547   
O        O      0.255740000000     0.347480000000     0.893030000000    -0.420547   
O        O      0.208850000000     0.482070000000     0.001980000000    -0.420547   
O        O      0.914890000000     0.149920000000     0.803360000000    -0.420547   
O        O      0.894620000000     0.981010000000     0.875780000000    -0.420547   
O        O      0.972500000000     0.313990000000     0.977580000000    -0.420547   
O        O      0.890140000000     0.149860000000     0.036680000000    -0.420547   
O        O      0.155470000000     0.102610000000     0.938730000000    -0.420547   
O        O      0.376520000000     0.110820000000     0.908830000000    -0.420547   
O        O      0.697830000000     0.305510000000     0.747230000000    -0.420547   
O        O      0.560680000000     0.314170000000     0.869370000000    -0.420547   
O        O      0.491780000000     0.127120000000     0.718970000000    -0.420547   
O        O      0.501120000000     0.958370000000     0.641040000000    -0.420547   
O        O      0.755740000000     0.152520000000     0.606970000000    -0.420547   
O        O      0.708850000000     0.017930000000     0.498020000000    -0.420547   
O        O      0.414890000000     0.350080000000     0.696640000000    -0.420547   
O        O      0.394620000000     0.518990000000     0.624220000000    -0.420547   
O        O      0.472500000000     0.186010000000     0.522420000000    -0.420547   
O        O      0.390140000000     0.350140000000     0.463320000000    -0.420547   
O        O      0.655470000000     0.397390000000     0.561270000000    -0.420547   
O        O      0.876520000000     0.389180000000     0.591170000000    -0.420547   


