data_RATCUL02_original

_audit_creation_method RASPA-1.0
_audit_creation_date 2022-1-31
_audit_author_name 'Felipe Lopes de Oliveira <felipe.lopes.oliveira@ibm.com>'

_cell_length_a    9.9777
_cell_length_b    11.4694
_cell_length_c    14.6144
_cell_angle_alpha 91.185
_cell_angle_beta  90
_cell_angle_gamma 90
_cell_volume      1672.09

_symmetry_cell_setting          triclinic
_symmetry_space_group_name_Hall 'P 1'
_symmetry_space_group_name_H-M  'P 1'
_symmetry_Int_Tables_number     1

_symmetry_equiv_pos_as_xyz 'x,y,z'

loop_
_atom_site_label
_atom_site_type_symbol
_atom_site_fract_x
_atom_site_fract_y
_atom_site_fract_z
_atom_site_charge
Fe       Fe     0.922770000000     0.755050000000     0.132920000000     0.917753   
Fe       Fe     0.887910000000     0.260000000000     0.688310000000     0.917753   
Fe       Fe     0.422770000000     0.744950000000     0.367080000000     0.917753   
Fe       Fe     0.387910000000     0.240000000000     0.811690000000     0.917753   
Fe       Fe     0.077230000000     0.244950000000     0.867080000000     0.917753   
Fe       Fe     0.112090000000     0.740000000000     0.311690000000     0.917753   
Fe       Fe     0.577230000000     0.255050000000     0.632920000000     0.917753   
Fe       Fe     0.612090000000     0.760000000000     0.188310000000     0.917753   
Fe       Fe     0.000000000000     0.500000000000     0.000000000000     0.917753   
Fe       Fe     0.500000000000     0.000000000000     0.500000000000     0.917753   
Fe       Fe     0.000000000000     0.000000000000     0.000000000000     0.917753   
Fe       Fe     0.500000000000     0.500000000000     0.500000000000     0.917753   
H        H      0.753000000000     0.855100000000     0.368100000000    -0.0866341  
H        H      0.034000000000     0.477100000000     0.265100000000    -0.0866341  
H        H      0.614000000000     0.563000000000     0.042000000000    -0.0866341  
H        H      0.201000000000     0.978000000000     0.234000000000    -0.0866341  
H        H      0.151000000000     0.697900000000     0.924900000000    -0.0866341  
H        H      0.704000000000     0.993000000000     0.008000000000    -0.0866341  
H        H      0.253000000000     0.644900000000     0.131900000000    -0.0866341  
H        H      0.534000000000     0.022900000000     0.234900000000    -0.0866341  
H        H      0.114000000000     0.937000000000     0.458000000000    -0.0866341  
H        H      0.701000000000     0.522000000000     0.266000000000    -0.0866341  
H        H      0.651000000000     0.802100000000     0.575100000000    -0.0866341  
H        H      0.204000000000     0.507000000000     0.492000000000    -0.0866341  
H        H      0.247000000000     0.144900000000     0.631900000000    -0.0866341  
H        H      0.966000000000     0.522900000000     0.734900000000    -0.0866341  
H        H      0.386000000000     0.437000000000     0.958000000000    -0.0866341  
H        H      0.799000000000     0.022000000000     0.766000000000    -0.0866341  
H        H      0.849000000000     0.302100000000     0.075100000000    -0.0866341  
H        H      0.296000000000     0.007000000000     0.992000000000    -0.0866341  
H        H      0.747000000000     0.355100000000     0.868100000000    -0.0866341  
H        H      0.466000000000     0.977100000000     0.765100000000    -0.0866341  
H        H      0.886000000000     0.063000000000     0.542000000000    -0.0866341  
H        H      0.299000000000     0.478000000000     0.734000000000    -0.0866341  
H        H      0.349000000000     0.197900000000     0.424900000000    -0.0866341  
H        H      0.796000000000     0.493000000000     0.508000000000    -0.0866341  
C        C      0.829500000000     0.827650000000     0.331350000000     0.470628   
C        C      0.017100000000     0.518050000000     0.210950000000     0.470628   
C        C      0.713100000000     0.575950000000     0.046750000000     0.470628   
C        C      0.131600000000     0.952370000000     0.186570000000     0.470628   
C        C      0.102100000000     0.743790000000     0.967190000000     0.470628   
C        C      0.723100000000     0.929470000000     0.051470000000     0.470628   
C        C      0.329500000000     0.672350000000     0.168650000000     0.470628   
C        C      0.517100000000     0.981950000000     0.289050000000     0.470628   
C        C      0.213100000000     0.924050000000     0.453250000000     0.470628   
C        C      0.631600000000     0.547630000000     0.313430000000     0.470628   
C        C      0.602100000000     0.756210000000     0.532810000000     0.470628   
C        C      0.223100000000     0.570530000000     0.448530000000     0.470628   
C        C      0.170500000000     0.172350000000     0.668650000000     0.470628   
C        C      0.982900000000     0.481950000000     0.789050000000     0.470628   
C        C      0.286900000000     0.424050000000     0.953250000000     0.470628   
C        C      0.868400000000     0.047630000000     0.813430000000     0.470628   
C        C      0.897900000000     0.256210000000     0.032810000000     0.470628   
C        C      0.276900000000     0.070530000000     0.948530000000     0.470628   
C        C      0.670500000000     0.327650000000     0.831350000000     0.470628   
C        C      0.482900000000     0.018050000000     0.710950000000     0.470628   
C        C      0.786900000000     0.075950000000     0.546750000000     0.470628   
C        C      0.368400000000     0.452370000000     0.686570000000     0.470628   
C        C      0.397900000000     0.243790000000     0.467190000000     0.470628   
C        C      0.776900000000     0.429470000000     0.551470000000     0.470628   
O        O      0.802250000000     0.805000000000     0.247550000000    -0.421435   
O        O      0.939730000000     0.814210000000     0.368550000000    -0.421435   
O        O      0.008420000000     0.627460000000     0.218620000000    -0.421435   
O        O      0.999780000000     0.459070000000     0.140770000000    -0.421435   
O        O      0.744490000000     0.652430000000     0.107280000000    -0.421435   
O        O      0.791650000000     0.518030000000     0.998640000000    -0.421435   
O        O      0.084760000000     0.850500000000     0.196370000000    -0.421435   
O        O      0.105840000000     0.018790000000     0.123810000000    -0.421435   
O        O      0.027190000000     0.685940000000     0.022060000000    -0.421435   
O        O      0.109470000000     0.850060000000     0.963160000000    -0.421435   
O        O      0.844680000000     0.897450000000     0.061410000000    -0.421435   
O        O      0.624540000000     0.888930000000     0.091760000000    -0.421435   
O        O      0.302250000000     0.695000000000     0.252450000000    -0.421435   
O        O      0.439730000000     0.685790000000     0.131450000000    -0.421435   
O        O      0.508420000000     0.872540000000     0.281380000000    -0.421435   
O        O      0.499780000000     0.040930000000     0.359230000000    -0.421435   
O        O      0.244490000000     0.847570000000     0.392720000000    -0.421435   
O        O      0.291650000000     0.981970000000     0.501360000000    -0.421435   
O        O      0.584760000000     0.649500000000     0.303630000000    -0.421435   
O        O      0.605840000000     0.481210000000     0.376190000000    -0.421435   
O        O      0.527190000000     0.814060000000     0.477940000000    -0.421435   
O        O      0.609470000000     0.649940000000     0.536840000000    -0.421435   
O        O      0.344680000000     0.602550000000     0.438590000000    -0.421435   
O        O      0.124540000000     0.611070000000     0.408240000000    -0.421435   
O        O      0.197750000000     0.195000000000     0.752450000000    -0.421435   
O        O      0.060270000000     0.185790000000     0.631450000000    -0.421435   
O        O      0.991580000000     0.372540000000     0.781380000000    -0.421435   
O        O      0.000220000000     0.540930000000     0.859230000000    -0.421435   
O        O      0.255510000000     0.347570000000     0.892720000000    -0.421435   
O        O      0.208350000000     0.481970000000     0.001360000000    -0.421435   
O        O      0.915240000000     0.149500000000     0.803630000000    -0.421435   
O        O      0.894160000000     0.981210000000     0.876190000000    -0.421435   
O        O      0.972810000000     0.314060000000     0.977940000000    -0.421435   
O        O      0.890530000000     0.149940000000     0.036840000000    -0.421435   
O        O      0.155320000000     0.102550000000     0.938590000000    -0.421435   
O        O      0.375460000000     0.111070000000     0.908240000000    -0.421435   
O        O      0.697750000000     0.305000000000     0.747550000000    -0.421435   
O        O      0.560270000000     0.314210000000     0.868550000000    -0.421435   
O        O      0.491580000000     0.127460000000     0.718620000000    -0.421435   
O        O      0.500220000000     0.959070000000     0.640770000000    -0.421435   
O        O      0.755510000000     0.152430000000     0.607280000000    -0.421435   
O        O      0.708350000000     0.018030000000     0.498640000000    -0.421435   
O        O      0.415240000000     0.350500000000     0.696370000000    -0.421435   
O        O      0.394160000000     0.518790000000     0.623810000000    -0.421435   
O        O      0.472810000000     0.185940000000     0.522060000000    -0.421435   
O        O      0.390530000000     0.350060000000     0.463160000000    -0.421435   
O        O      0.655320000000     0.397450000000     0.561410000000    -0.421435   
O        O      0.875460000000     0.388930000000     0.591760000000    -0.421435   


