data_RAXCOK_original

_audit_creation_method RASPA-1.0
_audit_creation_date 2022-1-31
_audit_author_name 'Felipe Lopes de Oliveira <felipe.lopes.oliveira@ibm.com>'

_cell_length_a    16.644
_cell_length_b    17.615
_cell_length_c    19.66
_cell_angle_alpha 91.89
_cell_angle_beta  90
_cell_angle_gamma 90
_cell_volume      5760.86

_symmetry_cell_setting          triclinic
_symmetry_space_group_name_Hall 'P 1'
_symmetry_space_group_name_H-M  'P 1'
_symmetry_Int_Tables_number     1

_symmetry_equiv_pos_as_xyz 'x,y,z'

loop_
_atom_site_label
_atom_site_type_symbol
_atom_site_fract_x
_atom_site_fract_y
_atom_site_fract_z
_atom_site_charge
Zn       Zn     0.894040000000     0.939280000000     0.510020000000     0.464911   
Zn       Zn     0.394040000000     0.560720000000     0.489980000000     0.464911   
Zn       Zn     0.105960000000     0.060720000000     0.489980000000     0.464911   
Zn       Zn     0.605960000000     0.439280000000     0.510020000000     0.464911   
H        H      0.940500000000     0.822500000000     0.738800000000     0.0671514  
H        H      0.922000000000     0.807700000000     0.277900000000     0.0671514  
H        H      0.115500000000     0.637300000000     0.507100000000     0.0671514  
H        H      0.940200000000     0.832100000000     0.622300000000     0.0671514  
H        H      0.855000000000     0.034700000000     0.755400000000     0.0671514  
H        H      0.022400000000     0.744100000000     0.510600000000     0.0671514  
H        H      0.885500000000     0.030000000000     0.266700000000     0.0671514  
H        H      0.088600000000     0.885100000000     0.067700000000     0.0671514  
H        H      0.859100000000     0.040400000000     0.637700000000     0.0671514  
H        H      0.925200000000     0.822200000000     0.394600000000     0.0671514  
H        H      0.090300000000     0.898400000000     0.949700000000     0.0671514  
H        H      0.708300000000     0.928300000000     0.069900000000     0.0671514  
H        H      0.707800000000     0.931100000000     0.950700000000     0.0671514  
H        H      0.883000000000     0.039400000000     0.384200000000     0.0671514  
H        H      0.440500000000     0.677500000000     0.261200000000     0.0671514  
H        H      0.422000000000     0.692300000000     0.722100000000     0.0671514  
H        H      0.615500000000     0.862700000000     0.492900000000     0.0671514  
H        H      0.440200000000     0.667900000000     0.377700000000     0.0671514  
H        H      0.355000000000     0.465300000000     0.244600000000     0.0671514  
H        H      0.522400000000     0.755900000000     0.489400000000     0.0671514  
H        H      0.385500000000     0.470000000000     0.733300000000     0.0671514  
H        H      0.588600000000     0.614900000000     0.932300000000     0.0671514  
H        H      0.359100000000     0.459600000000     0.362300000000     0.0671514  
H        H      0.425200000000     0.677800000000     0.605400000000     0.0671514  
H        H      0.590300000000     0.601600000000     0.050300000000     0.0671514  
H        H      0.208300000000     0.571700000000     0.930100000000     0.0671514  
H        H      0.207800000000     0.568900000000     0.049300000000     0.0671514  
H        H      0.383000000000     0.460600000000     0.615800000000     0.0671514  
H        H      0.059500000000     0.177500000000     0.261200000000     0.0671514  
H        H      0.078000000000     0.192300000000     0.722100000000     0.0671514  
H        H      0.884500000000     0.362700000000     0.492900000000     0.0671514  
H        H      0.059800000000     0.167900000000     0.377700000000     0.0671514  
H        H      0.145000000000     0.965300000000     0.244600000000     0.0671514  
H        H      0.977600000000     0.255900000000     0.489400000000     0.0671514  
H        H      0.114500000000     0.970000000000     0.733300000000     0.0671514  
H        H      0.911400000000     0.114900000000     0.932300000000     0.0671514  
H        H      0.140900000000     0.959600000000     0.362300000000     0.0671514  
H        H      0.074800000000     0.177800000000     0.605400000000     0.0671514  
H        H      0.909700000000     0.101600000000     0.050300000000     0.0671514  
H        H      0.291700000000     0.071700000000     0.930100000000     0.0671514  
H        H      0.292200000000     0.068900000000     0.049300000000     0.0671514  
H        H      0.117000000000     0.960600000000     0.615800000000     0.0671514  
H        H      0.559500000000     0.322500000000     0.738800000000     0.0671514  
H        H      0.578000000000     0.307700000000     0.277900000000     0.0671514  
H        H      0.384500000000     0.137300000000     0.507100000000     0.0671514  
H        H      0.559800000000     0.332100000000     0.622300000000     0.0671514  
H        H      0.645000000000     0.534700000000     0.755400000000     0.0671514  
H        H      0.477600000000     0.244100000000     0.510600000000     0.0671514  
H        H      0.614500000000     0.530000000000     0.266700000000     0.0671514  
H        H      0.411400000000     0.385100000000     0.067700000000     0.0671514  
H        H      0.640900000000     0.540400000000     0.637700000000     0.0671514  
H        H      0.574800000000     0.322200000000     0.394600000000     0.0671514  
H        H      0.409700000000     0.398400000000     0.949700000000     0.0671514  
H        H      0.791700000000     0.428300000000     0.069900000000     0.0671514  
H        H      0.792200000000     0.431100000000     0.950700000000     0.0671514  
H        H      0.617000000000     0.539400000000     0.384200000000     0.0671514  
C        C      0.115670000000     0.816750000000     0.496600000000     0.0441931  
C        C      0.970900000000     0.907700000000     0.938790000000     0.0441931  
C        C      0.281400000000     0.661200000000     0.490920000000     0.0441931  
C        C      0.923600000000     0.867600000000     0.718940000000     0.0441931  
C        C      0.972400000000     0.914600000000     0.863930000000     0.0441931  
C        C      0.914000000000     0.855700000000     0.299100000000     0.0441931  
C        C      0.901600000000     0.917800000000     0.261910000000     0.0441931  
C        C      0.131400000000     0.688000000000     0.502460000000     0.0441931  
C        C      0.899200000000     0.928700000000     0.758460000000     0.0441931  
C        C      0.970600000000     0.900400000000     0.079530000000     0.0441931  
C        C      0.923000000000     0.873900000000     0.649460000000     0.0441931  
C        C      0.825500000000     0.925100000000     0.864110000000     0.0441931  
C        C      0.873500000000     0.993000000000     0.728780000000     0.0441931  
C        C      0.078100000000     0.749140000000     0.504480000000     0.0441931  
C        C      0.826300000000     0.917200000000     0.080790000000     0.0441931  
C        C      0.899100000000     0.912800000000     0.973530000000     0.0441931  
C        C      0.972100000000     0.898800000000     0.154720000000     0.0441931  
C        C      0.891700000000     0.986400000000     0.292520000000     0.0441931  
C        C      0.040300000000     0.893800000000     0.044360000000     0.0441931  
C        C      0.826100000000     0.918900000000     0.155860000000     0.0441931  
C        C      0.875300000000     0.995500000000     0.658410000000     0.0441931  
C        C      0.208600000000     0.709500000000     0.493170000000     0.0441931  
C        C      0.898800000000     0.910200000000     0.045430000000     0.0441931  
C        C      0.914700000000     0.864900000000     0.368620000000     0.0441931  
C        C      0.826800000000     0.921000000000     0.939680000000     0.0441931  
C        C      0.041200000000     0.899800000000     0.973360000000     0.0441931  
C        C      0.757100000000     0.924400000000     0.045960000000     0.0441931  
C        C      0.756500000000     0.926300000000     0.974270000000     0.0441931  
C        C      0.891000000000     0.991500000000     0.362640000000     0.0441931  
C        C      0.078900000000     0.893120000000     0.497090000000     0.0441931  
C        C      0.615670000000     0.683250000000     0.503400000000     0.0441931  
C        C      0.470900000000     0.592300000000     0.061210000000     0.0441931  
C        C      0.781400000000     0.838800000000     0.509080000000     0.0441931  
C        C      0.423600000000     0.632400000000     0.281060000000     0.0441931  
C        C      0.472400000000     0.585400000000     0.136070000000     0.0441931  
C        C      0.414000000000     0.644300000000     0.700900000000     0.0441931  
C        C      0.401600000000     0.582200000000     0.738090000000     0.0441931  
C        C      0.631400000000     0.812000000000     0.497540000000     0.0441931  
C        C      0.399200000000     0.571300000000     0.241540000000     0.0441931  
C        C      0.470600000000     0.599600000000     0.920470000000     0.0441931  
C        C      0.423000000000     0.626100000000     0.350540000000     0.0441931  
C        C      0.325500000000     0.574900000000     0.135890000000     0.0441931  
C        C      0.373500000000     0.507000000000     0.271220000000     0.0441931  
C        C      0.578100000000     0.750860000000     0.495520000000     0.0441931  
C        C      0.326300000000     0.582800000000     0.919210000000     0.0441931  
C        C      0.399100000000     0.587200000000     0.026470000000     0.0441931  
C        C      0.472100000000     0.601200000000     0.845280000000     0.0441931  
C        C      0.391700000000     0.513600000000     0.707480000000     0.0441931  
C        C      0.540300000000     0.606200000000     0.955640000000     0.0441931  
C        C      0.326100000000     0.581100000000     0.844140000000     0.0441931  
C        C      0.375300000000     0.504500000000     0.341590000000     0.0441931  
C        C      0.708600000000     0.790500000000     0.506830000000     0.0441931  
C        C      0.398800000000     0.589800000000     0.954570000000     0.0441931  
C        C      0.414700000000     0.635100000000     0.631380000000     0.0441931  
C        C      0.326800000000     0.579000000000     0.060320000000     0.0441931  
C        C      0.541200000000     0.600200000000     0.026640000000     0.0441931  
C        C      0.257100000000     0.575600000000     0.954040000000     0.0441931  
C        C      0.256500000000     0.573700000000     0.025730000000     0.0441931  
C        C      0.391000000000     0.508500000000     0.637360000000     0.0441931  
C        C      0.578900000000     0.606880000000     0.502910000000     0.0441931  
C        C      0.884330000000     0.183250000000     0.503400000000     0.0441931  
C        C      0.029100000000     0.092300000000     0.061210000000     0.0441931  
C        C      0.718600000000     0.338800000000     0.509080000000     0.0441931  
C        C      0.076400000000     0.132400000000     0.281060000000     0.0441931  
C        C      0.027600000000     0.085400000000     0.136070000000     0.0441931  
C        C      0.086000000000     0.144300000000     0.700900000000     0.0441931  
C        C      0.098400000000     0.082200000000     0.738090000000     0.0441931  
C        C      0.868600000000     0.312000000000     0.497540000000     0.0441931  
C        C      0.100800000000     0.071300000000     0.241540000000     0.0441931  
C        C      0.029400000000     0.099600000000     0.920470000000     0.0441931  
C        C      0.077000000000     0.126100000000     0.350540000000     0.0441931  
C        C      0.174500000000     0.074900000000     0.135890000000     0.0441931  
C        C      0.126500000000     0.007000000000     0.271220000000     0.0441931  
C        C      0.921900000000     0.250860000000     0.495520000000     0.0441931  
C        C      0.173700000000     0.082800000000     0.919210000000     0.0441931  
C        C      0.100900000000     0.087200000000     0.026470000000     0.0441931  
C        C      0.027900000000     0.101200000000     0.845280000000     0.0441931  
C        C      0.108300000000     0.013600000000     0.707480000000     0.0441931  
C        C      0.959700000000     0.106200000000     0.955640000000     0.0441931  
C        C      0.173900000000     0.081100000000     0.844140000000     0.0441931  
C        C      0.124700000000     0.004500000000     0.341590000000     0.0441931  
C        C      0.791400000000     0.290500000000     0.506830000000     0.0441931  
C        C      0.101200000000     0.089800000000     0.954570000000     0.0441931  
C        C      0.085300000000     0.135100000000     0.631380000000     0.0441931  
C        C      0.173200000000     0.079000000000     0.060320000000     0.0441931  
C        C      0.958800000000     0.100200000000     0.026640000000     0.0441931  
C        C      0.242900000000     0.075600000000     0.954040000000     0.0441931  
C        C      0.243500000000     0.073700000000     0.025730000000     0.0441931  
C        C      0.109000000000     0.008500000000     0.637360000000     0.0441931  
C        C      0.921100000000     0.106880000000     0.502910000000     0.0441931  
C        C      0.384330000000     0.316750000000     0.496600000000     0.0441931  
C        C      0.529100000000     0.407700000000     0.938790000000     0.0441931  
C        C      0.218600000000     0.161200000000     0.490920000000     0.0441931  
C        C      0.576400000000     0.367600000000     0.718940000000     0.0441931  
C        C      0.527600000000     0.414600000000     0.863930000000     0.0441931  
C        C      0.586000000000     0.355700000000     0.299100000000     0.0441931  
C        C      0.598400000000     0.417800000000     0.261910000000     0.0441931  
C        C      0.368600000000     0.188000000000     0.502460000000     0.0441931  
C        C      0.600800000000     0.428700000000     0.758460000000     0.0441931  
C        C      0.529400000000     0.400400000000     0.079530000000     0.0441931  
C        C      0.577000000000     0.373900000000     0.649460000000     0.0441931  
C        C      0.674500000000     0.425100000000     0.864110000000     0.0441931  
C        C      0.626500000000     0.493000000000     0.728780000000     0.0441931  
C        C      0.421900000000     0.249140000000     0.504480000000     0.0441931  
C        C      0.673700000000     0.417200000000     0.080790000000     0.0441931  
C        C      0.600900000000     0.412800000000     0.973530000000     0.0441931  
C        C      0.527900000000     0.398800000000     0.154720000000     0.0441931  
C        C      0.608300000000     0.486400000000     0.292520000000     0.0441931  
C        C      0.459700000000     0.393800000000     0.044360000000     0.0441931  
C        C      0.673900000000     0.418900000000     0.155860000000     0.0441931  
C        C      0.624700000000     0.495500000000     0.658410000000     0.0441931  
C        C      0.291400000000     0.209500000000     0.493170000000     0.0441931  
C        C      0.601200000000     0.410200000000     0.045430000000     0.0441931  
C        C      0.585300000000     0.364900000000     0.368620000000     0.0441931  
C        C      0.673200000000     0.421000000000     0.939680000000     0.0441931  
C        C      0.458800000000     0.399800000000     0.973360000000     0.0441931  
C        C      0.742900000000     0.424400000000     0.045960000000     0.0441931  
C        C      0.743500000000     0.426300000000     0.974270000000     0.0441931  
C        C      0.609000000000     0.491500000000     0.362640000000     0.0441931  
C        C      0.421100000000     0.393120000000     0.497090000000     0.0441931  
S        S      0.215740000000     0.805470000000     0.486590000000     0.0927659  
S        S      0.715740000000     0.694530000000     0.513410000000     0.0927659  
S        S      0.784260000000     0.194530000000     0.513410000000     0.0927659  
S        S      0.284260000000     0.305470000000     0.486590000000     0.0927659  
N        N      0.901190000000     0.931220000000     0.401240000000    -0.191631   
N        N      0.899220000000     0.924420000000     0.831720000000    -0.191631   
N        N      0.899170000000     0.936450000000     0.618670000000    -0.191631   
N        N      0.899380000000     0.912310000000     0.187690000000    -0.191631   
N        N      0.401190000000     0.568780000000     0.598760000000    -0.191631   
N        N      0.399220000000     0.575580000000     0.168280000000    -0.191631   
N        N      0.399170000000     0.563550000000     0.381330000000    -0.191631   
N        N      0.399380000000     0.587690000000     0.812310000000    -0.191631   
N        N      0.098810000000     0.068780000000     0.598760000000    -0.191631   
N        N      0.100780000000     0.075580000000     0.168280000000    -0.191631   
N        N      0.100830000000     0.063550000000     0.381330000000    -0.191631   
N        N      0.100620000000     0.087690000000     0.812310000000    -0.191631   
N        N      0.598810000000     0.431220000000     0.401240000000    -0.191631   
N        N      0.600780000000     0.424420000000     0.831720000000    -0.191631   
N        N      0.600830000000     0.436450000000     0.618670000000    -0.191631   
N        N      0.600620000000     0.412310000000     0.187690000000    -0.191631   
O        O      0.006750000000     0.897500000000     0.510930000000    -0.257134   
O        O      0.124950000000     0.947990000000     0.486260000000    -0.257134   
O        O      0.347270000000     0.693440000000     0.488200000000    -0.257134   
O        O      0.034030000000     0.916050000000     0.831610000000    -0.257134   
O        O      0.031780000000     0.887890000000     0.186680000000    -0.257134   
O        O      0.273840000000     0.591320000000     0.491810000000    -0.257134   
O        O      0.764900000000     0.928900000000     0.831530000000    -0.257134   
O        O      0.766740000000     0.926600000000     0.188880000000    -0.257134   
O        O      0.506750000000     0.602500000000     0.489070000000    -0.257134   
O        O      0.624950000000     0.552010000000     0.513740000000    -0.257134   
O        O      0.847270000000     0.806560000000     0.511800000000    -0.257134   
O        O      0.534030000000     0.583950000000     0.168390000000    -0.257134   
O        O      0.531780000000     0.612110000000     0.813320000000    -0.257134   
O        O      0.773840000000     0.908680000000     0.508190000000    -0.257134   
O        O      0.264900000000     0.571100000000     0.168470000000    -0.257134   
O        O      0.266740000000     0.573400000000     0.811120000000    -0.257134   
O        O      0.993250000000     0.102500000000     0.489070000000    -0.257134   
O        O      0.875050000000     0.052010000000     0.513740000000    -0.257134   
O        O      0.652730000000     0.306560000000     0.511800000000    -0.257134   
O        O      0.965970000000     0.083950000000     0.168390000000    -0.257134   
O        O      0.968220000000     0.112110000000     0.813320000000    -0.257134   
O        O      0.726160000000     0.408680000000     0.508190000000    -0.257134   
O        O      0.235100000000     0.071100000000     0.168470000000    -0.257134   
O        O      0.233260000000     0.073400000000     0.811120000000    -0.257134   
O        O      0.493250000000     0.397500000000     0.510930000000    -0.257134   
O        O      0.375050000000     0.447990000000     0.486260000000    -0.257134   
O        O      0.152730000000     0.193440000000     0.488200000000    -0.257134   
O        O      0.465970000000     0.416050000000     0.831610000000    -0.257134   
O        O      0.468220000000     0.387890000000     0.186680000000    -0.257134   
O        O      0.226160000000     0.091320000000     0.491810000000    -0.257134   
O        O      0.735100000000     0.428900000000     0.831530000000    -0.257134   
O        O      0.733260000000     0.426600000000     0.188880000000    -0.257134   


