data_REDROI_original

_audit_creation_method RASPA-1.0
_audit_creation_date 2022-1-30
_audit_author_name 'Felipe Lopes de Oliveira <felipe.lopes.oliveira@ibm.com>'

_cell_length_a    6.405
_cell_length_b    14.164
_cell_length_c    20.098
_cell_angle_alpha 90
_cell_angle_beta  95.29
_cell_angle_gamma 90
_cell_volume      1815.53

_symmetry_cell_setting          triclinic
_symmetry_space_group_name_Hall 'P 1'
_symmetry_space_group_name_H-M  'P 1'
_symmetry_Int_Tables_number     1

_symmetry_equiv_pos_as_xyz 'x,y,z'

loop_
_atom_site_label
_atom_site_type_symbol
_atom_site_fract_x
_atom_site_fract_y
_atom_site_fract_z
_atom_site_charge
Zn       Zn     0.985540000000     0.192860000000     0.941850000000     0.523066   
Zn       Zn     0.514520000000     0.601970000000     0.543920000000     0.523066   
Zn       Zn     0.014460000000     0.692860000000     0.558150000000     0.523066   
Zn       Zn     0.485480000000     0.101970000000     0.956080000000     0.523066   
Zn       Zn     0.014460000000     0.807140000000     0.058150000000     0.523066   
Zn       Zn     0.485480000000     0.398030000000     0.456080000000     0.523066   
Zn       Zn     0.985540000000     0.307140000000     0.441850000000     0.523066   
Zn       Zn     0.514520000000     0.898030000000     0.043920000000     0.523066   
Zn       Zn     0.000000000000     0.500000000000     0.500000000000     0.523066   
Zn       Zn     0.000000000000     0.000000000000     0.000000000000     0.523066   
H        H      0.136200000000     0.297400000000     0.675300000000     0.149951   
H        H      0.262300000000     0.216400000000     0.771400000000     0.149951   
H        H      0.837100000000     0.323000000000     0.754800000000     0.149951   
H        H      0.714800000000     0.397300000000     0.656500000000     0.149951   
H        H      0.711300000000     0.374500000000     0.973600000000     0.149951   
H        H      0.155300000000     0.473500000000     0.019900000000     0.149951   
H        H      0.222000000000     0.631000000000     0.472000000000     0.149951   
H        H      0.842000000000     0.574000000000     0.598400000000     0.149951   
H        H      0.863800000000     0.797400000000     0.824700000000     0.149951   
H        H      0.737700000000     0.716400000000     0.728600000000     0.149951   
H        H      0.162900000000     0.823000000000     0.745200000000     0.149951   
H        H      0.285200000000     0.897300000000     0.843500000000     0.149951   
H        H      0.288700000000     0.874500000000     0.526400000000     0.149951   
H        H      0.844700000000     0.973500000000     0.480100000000     0.149951   
H        H      0.778000000000     0.131000000000     0.028000000000     0.149951   
H        H      0.158000000000     0.074000000000     0.901600000000     0.149951   
H        H      0.863800000000     0.702600000000     0.324700000000     0.149951   
H        H      0.737700000000     0.783600000000     0.228600000000     0.149951   
H        H      0.162900000000     0.677000000000     0.245200000000     0.149951   
H        H      0.285200000000     0.602700000000     0.343500000000     0.149951   
H        H      0.288700000000     0.625500000000     0.026400000000     0.149951   
H        H      0.844700000000     0.526500000000     0.980100000000     0.149951   
H        H      0.778000000000     0.369000000000     0.528000000000     0.149951   
H        H      0.158000000000     0.426000000000     0.401600000000     0.149951   
H        H      0.136200000000     0.202600000000     0.175300000000     0.149951   
H        H      0.262300000000     0.283600000000     0.271400000000     0.149951   
H        H      0.837100000000     0.177000000000     0.254800000000     0.149951   
H        H      0.714800000000     0.102700000000     0.156500000000     0.149951   
H        H      0.711300000000     0.125500000000     0.473600000000     0.149951   
H        H      0.155300000000     0.026500000000     0.519900000000     0.149951   
H        H      0.222000000000     0.869000000000     0.972000000000     0.149951   
H        H      0.842000000000     0.926000000000     0.098400000000     0.149951   
C        C      0.331200000000     0.414700000000     0.596010000000     0.054948   
C        C      0.411700000000     0.357500000000     0.655950000000     0.054948   
C        C      0.277100000000     0.302200000000     0.690900000000     0.054948   
C        C      0.352500000000     0.253800000000     0.749000000000     0.054948   
C        C      0.563600000000     0.261700000000     0.773390000000     0.054948   
C        C      0.696900000000     0.316800000000     0.738600000000     0.054948   
C        C      0.622500000000     0.362700000000     0.680000000000     0.054948   
C        C      0.644500000000     0.214100000000     0.837570000000     0.054948   
C        C      0.325900000000     0.309800000000     0.989330000000     0.054948   
C        C      0.417900000000     0.408100000000     0.995900000000     0.054948   
C        C      0.626200000000     0.424500000000     0.984100000000     0.054948   
C        C      0.294000000000     0.484000000000     0.011800000000     0.054948   
C        C      0.668800000000     0.914700000000     0.903990000000     0.054948   
C        C      0.588300000000     0.857500000000     0.844050000000     0.054948   
C        C      0.722900000000     0.802200000000     0.809100000000     0.054948   
C        C      0.647500000000     0.753800000000     0.751000000000     0.054948   
C        C      0.436400000000     0.761700000000     0.726610000000     0.054948   
C        C      0.303100000000     0.816800000000     0.761400000000     0.054948   
C        C      0.377500000000     0.862700000000     0.820000000000     0.054948   
C        C      0.355500000000     0.714100000000     0.662430000000     0.054948   
C        C      0.674100000000     0.809800000000     0.510670000000     0.054948   
C        C      0.582100000000     0.908100000000     0.504100000000     0.054948   
C        C      0.373800000000     0.924500000000     0.515900000000     0.054948   
C        C      0.706000000000     0.984000000000     0.488200000000     0.054948   
C        C      0.668800000000     0.585300000000     0.403990000000     0.054948   
C        C      0.588300000000     0.642500000000     0.344050000000     0.054948   
C        C      0.722900000000     0.697800000000     0.309100000000     0.054948   
C        C      0.647500000000     0.746200000000     0.251000000000     0.054948   
C        C      0.436400000000     0.738300000000     0.226610000000     0.054948   
C        C      0.303100000000     0.683200000000     0.261400000000     0.054948   
C        C      0.377500000000     0.637300000000     0.320000000000     0.054948   
C        C      0.355500000000     0.785900000000     0.162430000000     0.054948   
C        C      0.674100000000     0.690200000000     0.010670000000     0.054948   
C        C      0.582100000000     0.591900000000     0.004100000000     0.054948   
C        C      0.373800000000     0.575500000000     0.015900000000     0.054948   
C        C      0.706000000000     0.516000000000     0.988200000000     0.054948   
C        C      0.331200000000     0.085300000000     0.096010000000     0.054948   
C        C      0.411700000000     0.142500000000     0.155950000000     0.054948   
C        C      0.277100000000     0.197800000000     0.190900000000     0.054948   
C        C      0.352500000000     0.246200000000     0.249000000000     0.054948   
C        C      0.563600000000     0.238300000000     0.273390000000     0.054948   
C        C      0.696900000000     0.183200000000     0.238600000000     0.054948   
C        C      0.622500000000     0.137300000000     0.180000000000     0.054948   
C        C      0.644500000000     0.285900000000     0.337570000000     0.054948   
C        C      0.325900000000     0.190200000000     0.489330000000     0.054948   
C        C      0.417900000000     0.091900000000     0.495900000000     0.054948   
C        C      0.626200000000     0.075500000000     0.484100000000     0.054948   
C        C      0.294000000000     0.016000000000     0.511800000000     0.054948   
O        O      0.466900000000     0.452540000000     0.561580000000    -0.395831   
O        O      0.136800000000     0.423240000000     0.583410000000    -0.395831   
O        O      0.824400000000     0.240540000000     0.862110000000    -0.395831   
O        O      0.532900000000     0.151400000000     0.861320000000    -0.395831   
O        O      0.449800000000     0.242000000000     0.992180000000    -0.395831   
O        O      0.127000000000     0.304300000000     0.980290000000    -0.395831   
O        O      0.206300000000     0.616870000000     0.508180000000    -0.395831   
O        O      0.826400000000     0.583580000000     0.566430000000    -0.395831   
O        O      0.533100000000     0.952540000000     0.938420000000    -0.395831   
O        O      0.863200000000     0.923240000000     0.916590000000    -0.395831   
O        O      0.175600000000     0.740540000000     0.637890000000    -0.395831   
O        O      0.467100000000     0.651400000000     0.638680000000    -0.395831   
O        O      0.550200000000     0.742000000000     0.507820000000    -0.395831   
O        O      0.873000000000     0.804300000000     0.519710000000    -0.395831   
O        O      0.793700000000     0.116870000000     0.991820000000    -0.395831   
O        O      0.173600000000     0.083580000000     0.933570000000    -0.395831   
O        O      0.533100000000     0.547460000000     0.438420000000    -0.395831   
O        O      0.863200000000     0.576760000000     0.416590000000    -0.395831   
O        O      0.175600000000     0.759460000000     0.137890000000    -0.395831   
O        O      0.467100000000     0.848600000000     0.138680000000    -0.395831   
O        O      0.550200000000     0.758000000000     0.007820000000    -0.395831   
O        O      0.873000000000     0.695700000000     0.019710000000    -0.395831   
O        O      0.793700000000     0.383130000000     0.491820000000    -0.395831   
O        O      0.173600000000     0.416420000000     0.433570000000    -0.395831   
O        O      0.466900000000     0.047460000000     0.061580000000    -0.395831   
O        O      0.136800000000     0.076760000000     0.083410000000    -0.395831   
O        O      0.824400000000     0.259460000000     0.362110000000    -0.395831   
O        O      0.532900000000     0.348600000000     0.361320000000    -0.395831   
O        O      0.449800000000     0.258000000000     0.492180000000    -0.395831   
O        O      0.127000000000     0.195700000000     0.480290000000    -0.395831   
O        O      0.206300000000     0.883130000000     0.008180000000    -0.395831   
O        O      0.826400000000     0.916420000000     0.066430000000    -0.395831   


