data_REFTUT_original

_audit_creation_method RASPA-1.0
_audit_creation_date 2022-1-31
_audit_author_name 'Felipe Lopes de Oliveira <felipe.lopes.oliveira@ibm.com>'

_cell_length_a    7.3585
_cell_length_b    18.7029
_cell_length_c    23.5965
_cell_angle_alpha 90
_cell_angle_beta  90
_cell_angle_gamma 90
_cell_volume      3247.48

_symmetry_cell_setting          triclinic
_symmetry_space_group_name_Hall 'P 1'
_symmetry_space_group_name_H-M  'P 1'
_symmetry_Int_Tables_number     1

_symmetry_equiv_pos_as_xyz 'x,y,z'

loop_
_atom_site_label
_atom_site_type_symbol
_atom_site_fract_x
_atom_site_fract_y
_atom_site_fract_z
_atom_site_charge
Ca       Ca     0.500000000000     0.500000000000     0.000000000000     1.55296    
Ca       Ca     0.000000000000     0.000000000000     0.000000000000     1.55296    
Ca       Ca     0.500000000000     0.500000000000     0.500000000000     1.55296    
Ca       Ca     0.000000000000     0.000000000000     0.500000000000     1.55296    
Zn       Zn     0.858000000000     0.549150000000     0.913280000000     0.410046   
Zn       Zn     0.642000000000     0.049150000000     0.086720000000     0.410046   
Zn       Zn     0.142000000000     0.450850000000     0.413280000000     0.410046   
Zn       Zn     0.358000000000     0.950850000000     0.586720000000     0.410046   
Zn       Zn     0.142000000000     0.450850000000     0.086720000000     0.410046   
Zn       Zn     0.358000000000     0.950850000000     0.913280000000     0.410046   
Zn       Zn     0.858000000000     0.549150000000     0.586720000000     0.410046   
Zn       Zn     0.642000000000     0.049150000000     0.413280000000     0.410046   
H        H      0.773800000000     0.296800000000     0.022400000000     0.145974   
H        H      0.997400000000     0.330900000000     0.869800000000     0.145974   
H        H      0.905700000000     0.130600000000     0.922700000000     0.145974   
H        H      0.929000000000     0.188400000000     0.806500000000     0.145974   
H        H      0.108400000000     0.232600000000     0.813600000000     0.145974   
H        H      0.097200000000     0.154400000000     0.837100000000     0.145974   
H        H      0.204300000000     0.455000000000     0.835000000000     0.145974   
H        H      0.907300000000     0.443500000000     0.775200000000     0.145974   
H        H      0.726200000000     0.796800000000     0.977600000000     0.145974   
H        H      0.502600000000     0.830900000000     0.130200000000     0.145974   
H        H      0.594300000000     0.630600000000     0.077300000000     0.145974   
H        H      0.571000000000     0.688400000000     0.193500000000     0.145974   
H        H      0.391600000000     0.732600000000     0.186400000000     0.145974   
H        H      0.402800000000     0.654400000000     0.162900000000     0.145974   
H        H      0.295700000000     0.955000000000     0.165000000000     0.145974   
H        H      0.592700000000     0.943500000000     0.224800000000     0.145974   
H        H      0.226200000000     0.703200000000     0.522400000000     0.145974   
H        H      0.002600000000     0.669100000000     0.369800000000     0.145974   
H        H      0.094300000000     0.869400000000     0.422700000000     0.145974   
H        H      0.071000000000     0.811600000000     0.306500000000     0.145974   
H        H      0.891600000000     0.767400000000     0.313600000000     0.145974   
H        H      0.902800000000     0.845600000000     0.337100000000     0.145974   
H        H      0.795700000000     0.545000000000     0.335000000000     0.145974   
H        H      0.092700000000     0.556500000000     0.275200000000     0.145974   
H        H      0.273800000000     0.203200000000     0.477600000000     0.145974   
H        H      0.497400000000     0.169100000000     0.630200000000     0.145974   
H        H      0.405700000000     0.369400000000     0.577300000000     0.145974   
H        H      0.429000000000     0.311600000000     0.693500000000     0.145974   
H        H      0.608400000000     0.267400000000     0.686400000000     0.145974   
H        H      0.597200000000     0.345600000000     0.662900000000     0.145974   
H        H      0.704300000000     0.045000000000     0.665000000000     0.145974   
H        H      0.407300000000     0.056500000000     0.724800000000     0.145974   
H        H      0.226200000000     0.703200000000     0.977600000000     0.145974   
H        H      0.002600000000     0.669100000000     0.130200000000     0.145974   
H        H      0.094300000000     0.869400000000     0.077300000000     0.145974   
H        H      0.071000000000     0.811600000000     0.193500000000     0.145974   
H        H      0.891600000000     0.767400000000     0.186400000000     0.145974   
H        H      0.902800000000     0.845600000000     0.162900000000     0.145974   
H        H      0.795700000000     0.545000000000     0.165000000000     0.145974   
H        H      0.092700000000     0.556500000000     0.224800000000     0.145974   
H        H      0.273800000000     0.203200000000     0.022400000000     0.145974   
H        H      0.497400000000     0.169100000000     0.869800000000     0.145974   
H        H      0.405700000000     0.369400000000     0.922700000000     0.145974   
H        H      0.429000000000     0.311600000000     0.806500000000     0.145974   
H        H      0.608400000000     0.267400000000     0.813600000000     0.145974   
H        H      0.597200000000     0.345600000000     0.837100000000     0.145974   
H        H      0.704300000000     0.045000000000     0.835000000000     0.145974   
H        H      0.407300000000     0.056500000000     0.775200000000     0.145974   
H        H      0.773800000000     0.296800000000     0.477600000000     0.145974   
H        H      0.997400000000     0.330900000000     0.630200000000     0.145974   
H        H      0.905700000000     0.130600000000     0.577300000000     0.145974   
H        H      0.929000000000     0.188400000000     0.693500000000     0.145974   
H        H      0.108400000000     0.232600000000     0.686400000000     0.145974   
H        H      0.097200000000     0.154400000000     0.662900000000     0.145974   
H        H      0.204300000000     0.455000000000     0.665000000000     0.145974   
H        H      0.907300000000     0.443500000000     0.724800000000     0.145974   
H        H      0.726200000000     0.796800000000     0.522400000000     0.145974   
H        H      0.502600000000     0.830900000000     0.369800000000     0.145974   
H        H      0.594300000000     0.630600000000     0.422700000000     0.145974   
H        H      0.571000000000     0.688400000000     0.306500000000     0.145974   
H        H      0.391600000000     0.732600000000     0.313600000000     0.145974   
H        H      0.402800000000     0.654400000000     0.337100000000     0.145974   
H        H      0.295700000000     0.955000000000     0.335000000000     0.145974   
H        H      0.592700000000     0.943500000000     0.275200000000     0.145974   
H        H      0.630900000000     0.534300000000     0.750000000000     0.145974   
H        H      0.869100000000     0.034300000000     0.250000000000     0.145974   
H        H      0.369100000000     0.465700000000     0.250000000000     0.145974   
H        H      0.130900000000     0.965700000000     0.750000000000     0.145974   
C        C      0.821900000000     0.279140000000     0.988730000000    -0.0168525  
C        C      0.879300000000     0.325870000000     0.947070000000    -0.0168525  
C        C      0.953500000000     0.299200000000     0.896920000000    -0.0168525  
C        C      0.848300000000     0.404800000000     0.954240000000    -0.0168525  
C        C      0.771700000000     0.157000000000     0.026490000000    -0.0168525  
C        C      0.836000000000     0.205520000000     0.980420000000    -0.0168525  
C        C      0.902000000000     0.179610000000     0.929020000000    -0.0168525  
C        C      0.962600000000     0.226100000000     0.886990000000    -0.0168525  
C        C      0.030500000000     0.197800000000     0.830920000000    -0.0168525  
C        C      0.529300000000     0.513850000000     0.855330000000    -0.0168525  
C        C      0.432600000000     0.497240000000     0.800980000000    -0.0168525  
C        C      0.260700000000     0.465700000000     0.800700000000    -0.0168525  
C        C      0.678100000000     0.779140000000     0.011270000000    -0.0168525  
C        C      0.620700000000     0.825870000000     0.052930000000    -0.0168525  
C        C      0.546500000000     0.799200000000     0.103080000000    -0.0168525  
C        C      0.651700000000     0.904800000000     0.045760000000    -0.0168525  
C        C      0.728300000000     0.657000000000     0.973510000000    -0.0168525  
C        C      0.664000000000     0.705520000000     0.019580000000    -0.0168525  
C        C      0.598000000000     0.679610000000     0.070980000000    -0.0168525  
C        C      0.537400000000     0.726100000000     0.113010000000    -0.0168525  
C        C      0.469500000000     0.697800000000     0.169080000000    -0.0168525  
C        C      0.970700000000     0.013850000000     0.144670000000    -0.0168525  
C        C      0.067400000000     0.997240000000     0.199020000000    -0.0168525  
C        C      0.239300000000     0.965700000000     0.199300000000    -0.0168525  
C        C      0.178100000000     0.720860000000     0.488730000000    -0.0168525  
C        C      0.120700000000     0.674130000000     0.447070000000    -0.0168525  
C        C      0.046500000000     0.700800000000     0.396920000000    -0.0168525  
C        C      0.151700000000     0.595200000000     0.454240000000    -0.0168525  
C        C      0.228300000000     0.843000000000     0.526490000000    -0.0168525  
C        C      0.164000000000     0.794480000000     0.480420000000    -0.0168525  
C        C      0.098000000000     0.820390000000     0.429020000000    -0.0168525  
C        C      0.037400000000     0.773900000000     0.386990000000    -0.0168525  
C        C      0.969500000000     0.802200000000     0.330920000000    -0.0168525  
C        C      0.470700000000     0.486150000000     0.355330000000    -0.0168525  
C        C      0.567400000000     0.502760000000     0.300980000000    -0.0168525  
C        C      0.739300000000     0.534300000000     0.300700000000    -0.0168525  
C        C      0.321900000000     0.220860000000     0.511270000000    -0.0168525  
C        C      0.379300000000     0.174130000000     0.552930000000    -0.0168525  
C        C      0.453500000000     0.200800000000     0.603080000000    -0.0168525  
C        C      0.348300000000     0.095200000000     0.545760000000    -0.0168525  
C        C      0.271700000000     0.343000000000     0.473510000000    -0.0168525  
C        C      0.336000000000     0.294480000000     0.519580000000    -0.0168525  
C        C      0.402000000000     0.320390000000     0.570980000000    -0.0168525  
C        C      0.462600000000     0.273900000000     0.613010000000    -0.0168525  
C        C      0.530500000000     0.302200000000     0.669080000000    -0.0168525  
C        C      0.029300000000     0.986150000000     0.644670000000    -0.0168525  
C        C      0.932600000000     0.002760000000     0.699020000000    -0.0168525  
C        C      0.760700000000     0.034300000000     0.699300000000    -0.0168525  
C        C      0.178100000000     0.720860000000     0.011270000000    -0.0168525  
C        C      0.120700000000     0.674130000000     0.052930000000    -0.0168525  
C        C      0.046500000000     0.700800000000     0.103080000000    -0.0168525  
C        C      0.151700000000     0.595200000000     0.045760000000    -0.0168525  
C        C      0.228300000000     0.843000000000     0.973510000000    -0.0168525  
C        C      0.164000000000     0.794480000000     0.019580000000    -0.0168525  
C        C      0.098000000000     0.820390000000     0.070980000000    -0.0168525  
C        C      0.037400000000     0.773900000000     0.113010000000    -0.0168525  
C        C      0.969500000000     0.802200000000     0.169080000000    -0.0168525  
C        C      0.470700000000     0.486150000000     0.144670000000    -0.0168525  
C        C      0.567400000000     0.502760000000     0.199020000000    -0.0168525  
C        C      0.739300000000     0.534300000000     0.199300000000    -0.0168525  
C        C      0.321900000000     0.220860000000     0.988730000000    -0.0168525  
C        C      0.379300000000     0.174130000000     0.947070000000    -0.0168525  
C        C      0.453500000000     0.200800000000     0.896920000000    -0.0168525  
C        C      0.348300000000     0.095200000000     0.954240000000    -0.0168525  
C        C      0.271700000000     0.343000000000     0.026490000000    -0.0168525  
C        C      0.336000000000     0.294480000000     0.980420000000    -0.0168525  
C        C      0.402000000000     0.320390000000     0.929020000000    -0.0168525  
C        C      0.462600000000     0.273900000000     0.886990000000    -0.0168525  
C        C      0.530500000000     0.302200000000     0.830920000000    -0.0168525  
C        C      0.029300000000     0.986150000000     0.855330000000    -0.0168525  
C        C      0.932600000000     0.002760000000     0.800980000000    -0.0168525  
C        C      0.760700000000     0.034300000000     0.800700000000    -0.0168525  
C        C      0.821900000000     0.279140000000     0.511270000000    -0.0168525  
C        C      0.879300000000     0.325870000000     0.552930000000    -0.0168525  
C        C      0.953500000000     0.299200000000     0.603080000000    -0.0168525  
C        C      0.848300000000     0.404800000000     0.545760000000    -0.0168525  
C        C      0.771700000000     0.157000000000     0.473510000000    -0.0168525  
C        C      0.836000000000     0.205520000000     0.519580000000    -0.0168525  
C        C      0.902000000000     0.179610000000     0.570980000000    -0.0168525  
C        C      0.962600000000     0.226100000000     0.613010000000    -0.0168525  
C        C      0.030500000000     0.197800000000     0.669080000000    -0.0168525  
C        C      0.529300000000     0.513850000000     0.644670000000    -0.0168525  
C        C      0.432600000000     0.497240000000     0.699020000000    -0.0168525  
C        C      0.260700000000     0.465700000000     0.699300000000    -0.0168525  
C        C      0.678100000000     0.779140000000     0.488730000000    -0.0168525  
C        C      0.620700000000     0.825870000000     0.447070000000    -0.0168525  
C        C      0.546500000000     0.799200000000     0.396920000000    -0.0168525  
C        C      0.651700000000     0.904800000000     0.454240000000    -0.0168525  
C        C      0.728300000000     0.657000000000     0.526490000000    -0.0168525  
C        C      0.664000000000     0.705520000000     0.480420000000    -0.0168525  
C        C      0.598000000000     0.679610000000     0.429020000000    -0.0168525  
C        C      0.537400000000     0.726100000000     0.386990000000    -0.0168525  
C        C      0.469500000000     0.697800000000     0.330920000000    -0.0168525  
C        C      0.970700000000     0.013850000000     0.355330000000    -0.0168525  
C        C      0.067400000000     0.997240000000     0.300980000000    -0.0168525  
C        C      0.239300000000     0.965700000000     0.300700000000    -0.0168525  
C        C      0.516700000000     0.512900000000     0.750000000000    -0.0168525  
C        C      0.171700000000     0.449700000000     0.750000000000    -0.0168525  
C        C      0.984600000000     0.417100000000     0.750000000000    -0.0168525  
C        C      0.983300000000     0.012900000000     0.250000000000    -0.0168525  
C        C      0.328300000000     0.949700000000     0.250000000000    -0.0168525  
C        C      0.515400000000     0.917100000000     0.250000000000    -0.0168525  
C        C      0.483300000000     0.487100000000     0.250000000000    -0.0168525  
C        C      0.828300000000     0.550300000000     0.250000000000    -0.0168525  
C        C      0.015400000000     0.582900000000     0.250000000000    -0.0168525  
C        C      0.016700000000     0.987100000000     0.750000000000    -0.0168525  
C        C      0.671700000000     0.050300000000     0.750000000000    -0.0168525  
C        C      0.484600000000     0.082900000000     0.750000000000    -0.0168525  
O        O      0.744800000000     0.425130000000     0.992690000000    -0.366633   
O        O      0.926100000000     0.446610000000     0.919430000000    -0.366633   
O        O      0.773200000000     0.088500000000     0.017770000000    -0.366633   
O        O      0.714000000000     0.181020000000     0.071760000000    -0.366633   
O        O      0.455100000000     0.500320000000     0.901720000000    -0.366633   
O        O      0.686500000000     0.541020000000     0.850090000000    -0.366633   
O        O      0.755200000000     0.925130000000     0.007310000000    -0.366633   
O        O      0.573900000000     0.946610000000     0.080570000000    -0.366633   
O        O      0.726800000000     0.588500000000     0.982230000000    -0.366633   
O        O      0.786000000000     0.681020000000     0.928240000000    -0.366633   
O        O      0.044900000000     0.000320000000     0.098280000000    -0.366633   
O        O      0.813500000000     0.041020000000     0.149910000000    -0.366633   
O        O      0.255200000000     0.574870000000     0.492690000000    -0.366633   
O        O      0.073900000000     0.553390000000     0.419430000000    -0.366633   
O        O      0.226800000000     0.911500000000     0.517770000000    -0.366633   
O        O      0.286000000000     0.818980000000     0.571760000000    -0.366633   
O        O      0.544900000000     0.499680000000     0.401720000000    -0.366633   
O        O      0.313500000000     0.458980000000     0.350090000000    -0.366633   
O        O      0.244800000000     0.074870000000     0.507310000000    -0.366633   
O        O      0.426100000000     0.053390000000     0.580570000000    -0.366633   
O        O      0.273200000000     0.411500000000     0.482230000000    -0.366633   
O        O      0.214000000000     0.318980000000     0.428240000000    -0.366633   
O        O      0.955100000000     0.999680000000     0.598280000000    -0.366633   
O        O      0.186500000000     0.958980000000     0.649910000000    -0.366633   
O        O      0.255200000000     0.574870000000     0.007310000000    -0.366633   
O        O      0.073900000000     0.553390000000     0.080570000000    -0.366633   
O        O      0.226800000000     0.911500000000     0.982230000000    -0.366633   
O        O      0.286000000000     0.818980000000     0.928240000000    -0.366633   
O        O      0.544900000000     0.499680000000     0.098280000000    -0.366633   
O        O      0.313500000000     0.458980000000     0.149910000000    -0.366633   
O        O      0.244800000000     0.074870000000     0.992690000000    -0.366633   
O        O      0.426100000000     0.053390000000     0.919430000000    -0.366633   
O        O      0.273200000000     0.411500000000     0.017770000000    -0.366633   
O        O      0.214000000000     0.318980000000     0.071760000000    -0.366633   
O        O      0.955100000000     0.999680000000     0.901720000000    -0.366633   
O        O      0.186500000000     0.958980000000     0.850090000000    -0.366633   
O        O      0.744800000000     0.425130000000     0.507310000000    -0.366633   
O        O      0.926100000000     0.446610000000     0.580570000000    -0.366633   
O        O      0.773200000000     0.088500000000     0.482230000000    -0.366633   
O        O      0.714000000000     0.181020000000     0.428240000000    -0.366633   
O        O      0.455100000000     0.500320000000     0.598280000000    -0.366633   
O        O      0.686500000000     0.541020000000     0.649910000000    -0.366633   
O        O      0.755200000000     0.925130000000     0.492690000000    -0.366633   
O        O      0.573900000000     0.946610000000     0.419430000000    -0.366633   
O        O      0.726800000000     0.588500000000     0.517770000000    -0.366633   
O        O      0.786000000000     0.681020000000     0.571760000000    -0.366633   
O        O      0.044900000000     0.000320000000     0.401720000000    -0.366633   
O        O      0.813500000000     0.041020000000     0.350090000000    -0.366633   


