data_REGQUR_original

_audit_creation_method RASPA-1.0
_audit_creation_date 2022-1-30
_audit_author_name 'Felipe Lopes de Oliveira <felipe.lopes.oliveira@ibm.com>'

_cell_length_a    17.9643
_cell_length_b    18.5924
_cell_length_c    18.5924
_cell_angle_alpha 120
_cell_angle_beta  90
_cell_angle_gamma 90
_cell_volume      5377.89

_symmetry_cell_setting          triclinic
_symmetry_space_group_name_Hall 'P 1'
_symmetry_space_group_name_H-M  'P 1'
_symmetry_Int_Tables_number     1

_symmetry_equiv_pos_as_xyz 'x,y,z'

loop_
_atom_site_label
_atom_site_type_symbol
_atom_site_fract_x
_atom_site_fract_y
_atom_site_fract_z
_atom_site_charge
Zn       Zn     0.619330000000     0.099260000000     0.342210000000     0.460705   
Zn       Zn     0.619330000000     0.242950000000     0.900740000000     0.460705   
Zn       Zn     0.619330000000     0.657790000000     0.757050000000     0.460705   
Zn       Zn     0.119330000000     0.900740000000     0.657790000000     0.460705   
Zn       Zn     0.119330000000     0.757050000000     0.099260000000     0.460705   
Zn       Zn     0.119330000000     0.342210000000     0.242950000000     0.460705   
Zn       Zn     0.119330000000     0.242950000000     0.342210000000     0.460705   
Zn       Zn     0.119330000000     0.657790000000     0.900740000000     0.460705   
Zn       Zn     0.119330000000     0.099260000000     0.757050000000     0.460705   
Zn       Zn     0.619330000000     0.757050000000     0.657790000000     0.460705   
Zn       Zn     0.619330000000     0.342210000000     0.099260000000     0.460705   
Zn       Zn     0.619330000000     0.900740000000     0.242950000000     0.460705   
Zn       Zn     0.276540000000     0.344150000000     0.344150000000     0.460705   
Zn       Zn     0.276540000000     0.000000000000     0.655850000000     0.460705   
Zn       Zn     0.276540000000     0.655850000000     0.000000000000     0.460705   
Zn       Zn     0.776540000000     0.655850000000     0.655850000000     0.460705   
Zn       Zn     0.776540000000     0.000000000000     0.344150000000     0.460705   
Zn       Zn     0.776540000000     0.344150000000     0.000000000000     0.460705   
H        H      0.582800000000     0.201200000000     0.646600000000     0.0560497  
H        H      0.397100000000     0.123600000000     0.292900000000     0.0560497  
H        H      0.582800000000     0.445400000000     0.798800000000     0.0560497  
H        H      0.397100000000     0.169300000000     0.876400000000     0.0560497  
H        H      0.582800000000     0.353400000000     0.554600000000     0.0560497  
H        H      0.397100000000     0.707100000000     0.830700000000     0.0560497  
H        H      0.082800000000     0.798800000000     0.353400000000     0.0560497  
H        H      0.897100000000     0.876400000000     0.707100000000     0.0560497  
H        H      0.082800000000     0.554600000000     0.201200000000     0.0560497  
H        H      0.897100000000     0.830700000000     0.123600000000     0.0560497  
H        H      0.082800000000     0.646600000000     0.445400000000     0.0560497  
H        H      0.897100000000     0.292900000000     0.169300000000     0.0560497  
H        H      0.082800000000     0.445400000000     0.646600000000     0.0560497  
H        H      0.897100000000     0.169300000000     0.292900000000     0.0560497  
H        H      0.082800000000     0.353400000000     0.798800000000     0.0560497  
H        H      0.897100000000     0.707100000000     0.876400000000     0.0560497  
H        H      0.082800000000     0.201200000000     0.554600000000     0.0560497  
H        H      0.897100000000     0.123600000000     0.830700000000     0.0560497  
H        H      0.582800000000     0.554600000000     0.353400000000     0.0560497  
H        H      0.397100000000     0.830700000000     0.707100000000     0.0560497  
H        H      0.582800000000     0.646600000000     0.201200000000     0.0560497  
H        H      0.397100000000     0.292900000000     0.123600000000     0.0560497  
H        H      0.582800000000     0.798800000000     0.445400000000     0.0560497  
H        H      0.397100000000     0.876400000000     0.169300000000     0.0560497  
H        H      0.206100000000     0.000000000000     0.195700000000     0.0560497  
H        H      0.206100000000     0.195700000000     0.000000000000     0.0560497  
H        H      0.206100000000     0.804300000000     0.804300000000     0.0560497  
H        H      0.706100000000     0.000000000000     0.804300000000     0.0560497  
H        H      0.706100000000     0.804300000000     0.000000000000     0.0560497  
H        H      0.706100000000     0.195700000000     0.195700000000     0.0560497  
C        C      0.588300000000     0.191900000000     0.498800000000     0.101769   
C        C      0.587100000000     0.266900000000     0.587000000000     0.101769   
C        C      0.585300000000     0.254900000000     0.655100000000     0.101769   
C        C      0.254200000000     0.155400000000     0.277400000000     0.101769   
C        C      0.295200000000     0.074000000000     0.242600000000     0.101769   
C        C      0.372100000000     0.073900000000     0.259600000000     0.101769   
C        C      0.588300000000     0.306900000000     0.808100000000     0.101769   
C        C      0.587100000000     0.320100000000     0.733100000000     0.101769   
C        C      0.585300000000     0.400200000000     0.745100000000     0.101769   
C        C      0.254200000000     0.122000000000     0.844600000000     0.101769   
C        C      0.295200000000     0.168600000000     0.926000000000     0.101769   
C        C      0.372100000000     0.185700000000     0.926100000000     0.101769   
C        C      0.588300000000     0.501200000000     0.693100000000     0.101769   
C        C      0.587100000000     0.413000000000     0.679900000000     0.101769   
C        C      0.585300000000     0.344900000000     0.599800000000     0.101769   
C        C      0.254200000000     0.722600000000     0.878000000000     0.101769   
C        C      0.295200000000     0.757400000000     0.831400000000     0.101769   
C        C      0.372100000000     0.740400000000     0.814300000000     0.101769   
C        C      0.088300000000     0.808100000000     0.501200000000     0.101769   
C        C      0.087100000000     0.733100000000     0.413000000000     0.101769   
C        C      0.085300000000     0.745100000000     0.344900000000     0.101769   
C        C      0.754200000000     0.844600000000     0.722600000000     0.101769   
C        C      0.795200000000     0.926000000000     0.757400000000     0.101769   
C        C      0.872100000000     0.926100000000     0.740400000000     0.101769   
C        C      0.088300000000     0.693100000000     0.191900000000     0.101769   
C        C      0.087100000000     0.679900000000     0.266900000000     0.101769   
C        C      0.085300000000     0.599800000000     0.254900000000     0.101769   
C        C      0.754200000000     0.878000000000     0.155400000000     0.101769   
C        C      0.795200000000     0.831400000000     0.074000000000     0.101769   
C        C      0.872100000000     0.814300000000     0.073900000000     0.101769   
C        C      0.088300000000     0.498800000000     0.306900000000     0.101769   
C        C      0.087100000000     0.587000000000     0.320100000000     0.101769   
C        C      0.085300000000     0.655100000000     0.400200000000     0.101769   
C        C      0.754200000000     0.277400000000     0.122000000000     0.101769   
C        C      0.795200000000     0.242600000000     0.168600000000     0.101769   
C        C      0.872100000000     0.259600000000     0.185700000000     0.101769   
C        C      0.088300000000     0.306900000000     0.498800000000     0.101769   
C        C      0.087100000000     0.320100000000     0.587000000000     0.101769   
C        C      0.085300000000     0.400200000000     0.655100000000     0.101769   
C        C      0.754200000000     0.122000000000     0.277400000000     0.101769   
C        C      0.795200000000     0.168600000000     0.242600000000     0.101769   
C        C      0.872100000000     0.185700000000     0.259600000000     0.101769   
C        C      0.088300000000     0.501200000000     0.808100000000     0.101769   
C        C      0.087100000000     0.413000000000     0.733100000000     0.101769   
C        C      0.085300000000     0.344900000000     0.745100000000     0.101769   
C        C      0.754200000000     0.722600000000     0.844600000000     0.101769   
C        C      0.795200000000     0.757400000000     0.926000000000     0.101769   
C        C      0.872100000000     0.740400000000     0.926100000000     0.101769   
C        C      0.088300000000     0.191900000000     0.693100000000     0.101769   
C        C      0.087100000000     0.266900000000     0.679900000000     0.101769   
C        C      0.085300000000     0.254900000000     0.599800000000     0.101769   
C        C      0.754200000000     0.155400000000     0.878000000000     0.101769   
C        C      0.795200000000     0.074000000000     0.831400000000     0.101769   
C        C      0.872100000000     0.073900000000     0.814300000000     0.101769   
C        C      0.588300000000     0.693100000000     0.501200000000     0.101769   
C        C      0.587100000000     0.679900000000     0.413000000000     0.101769   
C        C      0.585300000000     0.599800000000     0.344900000000     0.101769   
C        C      0.254200000000     0.878000000000     0.722600000000     0.101769   
C        C      0.295200000000     0.831400000000     0.757400000000     0.101769   
C        C      0.372100000000     0.814300000000     0.740400000000     0.101769   
C        C      0.588300000000     0.498800000000     0.191900000000     0.101769   
C        C      0.587100000000     0.587000000000     0.266900000000     0.101769   
C        C      0.585300000000     0.655100000000     0.254900000000     0.101769   
C        C      0.254200000000     0.277400000000     0.155400000000     0.101769   
C        C      0.295200000000     0.242600000000     0.074000000000     0.101769   
C        C      0.372100000000     0.259600000000     0.073900000000     0.101769   
C        C      0.588300000000     0.808100000000     0.306900000000     0.101769   
C        C      0.587100000000     0.733100000000     0.320100000000     0.101769   
C        C      0.585300000000     0.745100000000     0.400200000000     0.101769   
C        C      0.254200000000     0.844600000000     0.122000000000     0.101769   
C        C      0.295200000000     0.926000000000     0.168600000000     0.101769   
C        C      0.372100000000     0.926100000000     0.185700000000     0.101769   
C        C      0.408900000000     0.000000000000     0.226700000000     0.101769   
C        C      0.491800000000     0.000000000000     0.247200000000     0.101769   
C        C      0.257500000000     0.000000000000     0.201400000000     0.101769   
C        C      0.408900000000     0.226700000000     0.000000000000     0.101769   
C        C      0.491800000000     0.247200000000     0.000000000000     0.101769   
C        C      0.257500000000     0.201400000000     0.000000000000     0.101769   
C        C      0.408900000000     0.773300000000     0.773300000000     0.101769   
C        C      0.491800000000     0.752800000000     0.752800000000     0.101769   
C        C      0.257500000000     0.798600000000     0.798600000000     0.101769   
C        C      0.908900000000     0.000000000000     0.773300000000     0.101769   
C        C      0.991800000000     0.000000000000     0.752800000000     0.101769   
C        C      0.757500000000     0.000000000000     0.798600000000     0.101769   
C        C      0.908900000000     0.773300000000     0.000000000000     0.101769   
C        C      0.991800000000     0.752800000000     0.000000000000     0.101769   
C        C      0.757500000000     0.798600000000     0.000000000000     0.101769   
C        C      0.908900000000     0.226700000000     0.226700000000     0.101769   
C        C      0.991800000000     0.247200000000     0.247200000000     0.101769   
C        C      0.757500000000     0.201400000000     0.201400000000     0.101769   
O        O      0.609100000000     0.207400000000     0.443600000000    -0.289899   
O        O      0.575100000000     0.124100000000     0.486100000000    -0.289899   
O        O      0.289600000000     0.220400000000     0.310400000000    -0.289899   
O        O      0.184500000000     0.151200000000     0.273700000000    -0.289899   
O        O      0.521100000000     0.068300000000     0.286500000000    -0.289899   
O        O      0.609100000000     0.236200000000     0.792600000000    -0.289899   
O        O      0.575100000000     0.362000000000     0.875900000000    -0.289899   
O        O      0.289600000000     0.090000000000     0.779600000000    -0.289899   
O        O      0.184500000000     0.122500000000     0.848800000000    -0.289899   
O        O      0.521100000000     0.218200000000     0.931700000000    -0.289899   
O        O      0.609100000000     0.556400000000     0.763800000000    -0.289899   
O        O      0.575100000000     0.513900000000     0.638000000000    -0.289899   
O        O      0.289600000000     0.689600000000     0.910000000000    -0.289899   
O        O      0.184500000000     0.726300000000     0.877500000000    -0.289899   
O        O      0.521100000000     0.713500000000     0.781800000000    -0.289899   
O        O      0.109100000000     0.792600000000     0.556400000000    -0.289899   
O        O      0.075100000000     0.875900000000     0.513900000000    -0.289899   
O        O      0.789600000000     0.779600000000     0.689600000000    -0.289899   
O        O      0.684500000000     0.848800000000     0.726300000000    -0.289899   
O        O      0.021100000000     0.931700000000     0.713500000000    -0.289899   
O        O      0.109100000000     0.763800000000     0.207400000000    -0.289899   
O        O      0.075100000000     0.638000000000     0.124100000000    -0.289899   
O        O      0.789600000000     0.910000000000     0.220400000000    -0.289899   
O        O      0.684500000000     0.877500000000     0.151200000000    -0.289899   
O        O      0.021100000000     0.781800000000     0.068300000000    -0.289899   
O        O      0.109100000000     0.443600000000     0.236200000000    -0.289899   
O        O      0.075100000000     0.486100000000     0.362000000000    -0.289899   
O        O      0.789600000000     0.310400000000     0.090000000000    -0.289899   
O        O      0.684500000000     0.273700000000     0.122500000000    -0.289899   
O        O      0.021100000000     0.286500000000     0.218200000000    -0.289899   
O        O      0.109100000000     0.236200000000     0.443600000000    -0.289899   
O        O      0.075100000000     0.362000000000     0.486100000000    -0.289899   
O        O      0.789600000000     0.090000000000     0.310400000000    -0.289899   
O        O      0.684500000000     0.122500000000     0.273700000000    -0.289899   
O        O      0.021100000000     0.218200000000     0.286500000000    -0.289899   
O        O      0.109100000000     0.556400000000     0.792600000000    -0.289899   
O        O      0.075100000000     0.513900000000     0.875900000000    -0.289899   
O        O      0.789600000000     0.689600000000     0.779600000000    -0.289899   
O        O      0.684500000000     0.726300000000     0.848800000000    -0.289899   
O        O      0.021100000000     0.713500000000     0.931700000000    -0.289899   
O        O      0.109100000000     0.207400000000     0.763800000000    -0.289899   
O        O      0.075100000000     0.124100000000     0.638000000000    -0.289899   
O        O      0.789600000000     0.220400000000     0.910000000000    -0.289899   
O        O      0.684500000000     0.151200000000     0.877500000000    -0.289899   
O        O      0.021100000000     0.068300000000     0.781800000000    -0.289899   
O        O      0.609100000000     0.763800000000     0.556400000000    -0.289899   
O        O      0.575100000000     0.638000000000     0.513900000000    -0.289899   
O        O      0.289600000000     0.910000000000     0.689600000000    -0.289899   
O        O      0.184500000000     0.877500000000     0.726300000000    -0.289899   
O        O      0.521100000000     0.781800000000     0.713500000000    -0.289899   
O        O      0.609100000000     0.443600000000     0.207400000000    -0.289899   
O        O      0.575100000000     0.486100000000     0.124100000000    -0.289899   
O        O      0.289600000000     0.310400000000     0.220400000000    -0.289899   
O        O      0.184500000000     0.273700000000     0.151200000000    -0.289899   
O        O      0.521100000000     0.286500000000     0.068300000000    -0.289899   
O        O      0.609100000000     0.792600000000     0.236200000000    -0.289899   
O        O      0.575100000000     0.875900000000     0.362000000000    -0.289899   
O        O      0.289600000000     0.779600000000     0.090000000000    -0.289899   
O        O      0.184500000000     0.848800000000     0.122500000000    -0.289899   
O        O      0.521100000000     0.931700000000     0.218200000000    -0.289899   
O        O      0.662000000000     0.000000000000     0.339600000000    -0.289899   
O        O      0.662000000000     0.339600000000     0.000000000000    -0.289899   
O        O      0.662000000000     0.660400000000     0.660400000000    -0.289899   
O        O      0.162000000000     0.000000000000     0.660400000000    -0.289899   
O        O      0.162000000000     0.660400000000     0.000000000000    -0.289899   
O        O      0.162000000000     0.339600000000     0.339600000000    -0.289899   


