data_REGREC_original

_audit_creation_method RASPA-1.0
_audit_creation_date 2022-1-30
_audit_author_name 'Felipe Lopes de Oliveira <felipe.lopes.oliveira@ibm.com>'

_cell_length_a    12.606
_cell_length_b    12.906
_cell_length_c    27.737
_cell_angle_alpha 92.97
_cell_angle_beta  90
_cell_angle_gamma 90
_cell_volume      4506.56

_symmetry_cell_setting          triclinic
_symmetry_space_group_name_Hall 'P 1'
_symmetry_space_group_name_H-M  'P 1'
_symmetry_Int_Tables_number     1

_symmetry_equiv_pos_as_xyz 'x,y,z'

loop_
_atom_site_label
_atom_site_type_symbol
_atom_site_fract_x
_atom_site_fract_y
_atom_site_fract_z
_atom_site_charge
Zn       Zn     0.955150000000     0.897620000000     0.865670000000     0.458261   
Zn       Zn     0.799220000000     0.041820000000     0.790190000000     0.458261   
Zn       Zn     0.422790000000     0.428140000000     0.973920000000     0.458261   
Zn       Zn     0.455150000000     0.602380000000     0.634330000000     0.458261   
Zn       Zn     0.299220000000     0.458180000000     0.709810000000     0.458261   
Zn       Zn     0.922790000000     0.071860000000     0.526080000000     0.458261   
Zn       Zn     0.044850000000     0.102380000000     0.134330000000     0.458261   
Zn       Zn     0.200780000000     0.958180000000     0.209810000000     0.458261   
Zn       Zn     0.577210000000     0.571860000000     0.026080000000     0.458261   
Zn       Zn     0.544850000000     0.397620000000     0.365670000000     0.458261   
Zn       Zn     0.700780000000     0.541820000000     0.290190000000     0.458261   
Zn       Zn     0.077210000000     0.928140000000     0.473920000000     0.458261   
H        H      0.691600000000     0.703500000000     0.898500000000     0.0538181  
H        H      0.472000000000     0.525800000000     0.827000000000     0.0538181  
H        H      0.632400000000     0.744100000000     0.757300000000     0.0538181  
H        H      0.048500000000     0.912700000000     0.033600000000     0.0538181  
H        H      0.308100000000     0.766700000000     0.083200000000     0.0538181  
H        H      0.201600000000     0.703400000000     0.946400000000     0.0538181  
H        H      0.191600000000     0.796500000000     0.601500000000     0.0538181  
H        H      0.972000000000     0.974200000000     0.673000000000     0.0538181  
H        H      0.132400000000     0.755900000000     0.742700000000     0.0538181  
H        H      0.548500000000     0.587300000000     0.466400000000     0.0538181  
H        H      0.808100000000     0.733300000000     0.416800000000     0.0538181  
H        H      0.701600000000     0.796600000000     0.553600000000     0.0538181  
H        H      0.308400000000     0.296500000000     0.101500000000     0.0538181  
H        H      0.528000000000     0.474200000000     0.173000000000     0.0538181  
H        H      0.367600000000     0.255900000000     0.242700000000     0.0538181  
H        H      0.951500000000     0.087300000000     0.966400000000     0.0538181  
H        H      0.691900000000     0.233300000000     0.916800000000     0.0538181  
H        H      0.798400000000     0.296600000000     0.053600000000     0.0538181  
H        H      0.808400000000     0.203500000000     0.398500000000     0.0538181  
H        H      0.028000000000     0.025800000000     0.327000000000     0.0538181  
H        H      0.867600000000     0.244100000000     0.257300000000     0.0538181  
H        H      0.451500000000     0.412700000000     0.533600000000     0.0538181  
H        H      0.191900000000     0.266700000000     0.583200000000     0.0538181  
H        H      0.298400000000     0.203400000000     0.446400000000     0.0538181  
C        C      0.673900000000     0.737000000000     0.827640000000     0.0969899  
C        C      0.653400000000     0.685300000000     0.869820000000     0.0969899  
C        C      0.577300000000     0.607700000000     0.869860000000     0.0969899  
C        C      0.524400000000     0.578700000000     0.827120000000     0.0969899  
C        C      0.547800000000     0.626400000000     0.784830000000     0.0969899  
C        C      0.620100000000     0.708000000000     0.785750000000     0.0969899  
C        C      0.750300000000     0.824600000000     0.829030000000     0.0969899  
C        C      0.548900000000     0.559300000000     0.915930000000     0.0969899  
C        C      0.490600000000     0.590600000000     0.739470000000     0.0969899  
C        C      0.118000000000     0.815200000000     0.983560000000     0.0969899  
C        C      0.105400000000     0.865200000000     0.028330000000     0.0969899  
C        C      0.175100000000     0.846900000000     0.065820000000     0.0969899  
C        C      0.258200000000     0.776800000000     0.058210000000     0.0969899  
C        C      0.268300000000     0.721100000000     0.013620000000     0.0969899  
C        C      0.196300000000     0.741200000000     0.976580000000     0.0969899  
C        C      0.044900000000     0.843100000000     0.943700000000     0.0969899  
C        C      0.160900000000     0.904300000000     0.114370000000     0.0969899  
C        C      0.354500000000     0.639800000000     0.006950000000     0.0969899  
C        C      0.173900000000     0.763000000000     0.672360000000     0.0969899  
C        C      0.153400000000     0.814700000000     0.630180000000     0.0969899  
C        C      0.077300000000     0.892300000000     0.630140000000     0.0969899  
C        C      0.024400000000     0.921300000000     0.672880000000     0.0969899  
C        C      0.047800000000     0.873600000000     0.715170000000     0.0969899  
C        C      0.120100000000     0.792000000000     0.714250000000     0.0969899  
C        C      0.250300000000     0.675400000000     0.670970000000     0.0969899  
C        C      0.048900000000     0.940700000000     0.584070000000     0.0969899  
C        C      0.990600000000     0.909400000000     0.760530000000     0.0969899  
C        C      0.618000000000     0.684800000000     0.516440000000     0.0969899  
C        C      0.605400000000     0.634800000000     0.471670000000     0.0969899  
C        C      0.675100000000     0.653100000000     0.434180000000     0.0969899  
C        C      0.758200000000     0.723200000000     0.441790000000     0.0969899  
C        C      0.768300000000     0.778900000000     0.486380000000     0.0969899  
C        C      0.696300000000     0.758800000000     0.523420000000     0.0969899  
C        C      0.544900000000     0.656900000000     0.556300000000     0.0969899  
C        C      0.660900000000     0.595700000000     0.385630000000     0.0969899  
C        C      0.854500000000     0.860200000000     0.493050000000     0.0969899  
C        C      0.326100000000     0.263000000000     0.172360000000     0.0969899  
C        C      0.346600000000     0.314700000000     0.130180000000     0.0969899  
C        C      0.422700000000     0.392300000000     0.130140000000     0.0969899  
C        C      0.475600000000     0.421300000000     0.172880000000     0.0969899  
C        C      0.452200000000     0.373600000000     0.215170000000     0.0969899  
C        C      0.379900000000     0.292000000000     0.214250000000     0.0969899  
C        C      0.249700000000     0.175400000000     0.170970000000     0.0969899  
C        C      0.451100000000     0.440700000000     0.084070000000     0.0969899  
C        C      0.509400000000     0.409400000000     0.260530000000     0.0969899  
C        C      0.882000000000     0.184800000000     0.016440000000     0.0969899  
C        C      0.894600000000     0.134800000000     0.971670000000     0.0969899  
C        C      0.824900000000     0.153100000000     0.934180000000     0.0969899  
C        C      0.741800000000     0.223200000000     0.941790000000     0.0969899  
C        C      0.731700000000     0.278900000000     0.986380000000     0.0969899  
C        C      0.803700000000     0.258800000000     0.023420000000     0.0969899  
C        C      0.955100000000     0.156900000000     0.056300000000     0.0969899  
C        C      0.839100000000     0.095700000000     0.885630000000     0.0969899  
C        C      0.645500000000     0.360200000000     0.993050000000     0.0969899  
C        C      0.826100000000     0.237000000000     0.327640000000     0.0969899  
C        C      0.846600000000     0.185300000000     0.369820000000     0.0969899  
C        C      0.922700000000     0.107700000000     0.369860000000     0.0969899  
C        C      0.975600000000     0.078700000000     0.327120000000     0.0969899  
C        C      0.952200000000     0.126400000000     0.284830000000     0.0969899  
C        C      0.879900000000     0.208000000000     0.285750000000     0.0969899  
C        C      0.749700000000     0.324600000000     0.329030000000     0.0969899  
C        C      0.951100000000     0.059300000000     0.415930000000     0.0969899  
C        C      0.009400000000     0.090600000000     0.239470000000     0.0969899  
C        C      0.382000000000     0.315200000000     0.483560000000     0.0969899  
C        C      0.394600000000     0.365200000000     0.528330000000     0.0969899  
C        C      0.324900000000     0.346900000000     0.565820000000     0.0969899  
C        C      0.241800000000     0.276800000000     0.558210000000     0.0969899  
C        C      0.231700000000     0.221100000000     0.513620000000     0.0969899  
C        C      0.303700000000     0.241200000000     0.476580000000     0.0969899  
C        C      0.455100000000     0.343100000000     0.443700000000     0.0969899  
C        C      0.339100000000     0.404300000000     0.614370000000     0.0969899  
C        C      0.145500000000     0.139800000000     0.506950000000     0.0969899  
O        O      0.740300000000     0.893000000000     0.799460000000    -0.286959   
O        O      0.821500000000     0.822300000000     0.861550000000    -0.286959   
O        O      0.479000000000     0.488800000000     0.913570000000    -0.286959   
O        O      0.594100000000     0.593000000000     0.953820000000    -0.286959   
O        O      0.517200000000     0.628400000000     0.700560000000    -0.286959   
O        O      0.419100000000     0.526800000000     0.744850000000    -0.286959   
O        O      0.955900000000     0.883500000000     0.953930000000    -0.286959   
O        O      0.074200000000     0.832200000000     0.901350000000    -0.286959   
O        O      0.233700000000     0.898400000000     0.144590000000    -0.286959   
O        O      0.074900000000     0.953700000000     0.122410000000    -0.286959   
O        O      0.328600000000     0.559300000000     0.982740000000    -0.286959   
O        O      0.440800000000     0.660200000000     0.026010000000    -0.286959   
O        O      0.240300000000     0.607000000000     0.700540000000    -0.286959   
O        O      0.321500000000     0.677700000000     0.638450000000    -0.286959   
O        O      0.979000000000     0.011200000000     0.586430000000    -0.286959   
O        O      0.094100000000     0.907000000000     0.546180000000    -0.286959   
O        O      0.017200000000     0.871600000000     0.799440000000    -0.286959   
O        O      0.919100000000     0.973200000000     0.755150000000    -0.286959   
O        O      0.455900000000     0.616500000000     0.546070000000    -0.286959   
O        O      0.574200000000     0.667800000000     0.598650000000    -0.286959   
O        O      0.733700000000     0.601600000000     0.355410000000    -0.286959   
O        O      0.574900000000     0.546300000000     0.377590000000    -0.286959   
O        O      0.828600000000     0.940700000000     0.517260000000    -0.286959   
O        O      0.940800000000     0.839800000000     0.473990000000    -0.286959   
O        O      0.259700000000     0.107000000000     0.200540000000    -0.286959   
O        O      0.178500000000     0.177700000000     0.138450000000    -0.286959   
O        O      0.521000000000     0.511200000000     0.086430000000    -0.286959   
O        O      0.405900000000     0.407000000000     0.046180000000    -0.286959   
O        O      0.482800000000     0.371600000000     0.299440000000    -0.286959   
O        O      0.580900000000     0.473200000000     0.255150000000    -0.286959   
O        O      0.044100000000     0.116500000000     0.046070000000    -0.286959   
O        O      0.925800000000     0.167800000000     0.098650000000    -0.286959   
O        O      0.766300000000     0.101600000000     0.855410000000    -0.286959   
O        O      0.925100000000     0.046300000000     0.877590000000    -0.286959   
O        O      0.671400000000     0.440700000000     0.017260000000    -0.286959   
O        O      0.559200000000     0.339800000000     0.973990000000    -0.286959   
O        O      0.759700000000     0.393000000000     0.299460000000    -0.286959   
O        O      0.678500000000     0.322300000000     0.361550000000    -0.286959   
O        O      0.021000000000     0.988800000000     0.413570000000    -0.286959   
O        O      0.905900000000     0.093000000000     0.453820000000    -0.286959   
O        O      0.982800000000     0.128400000000     0.200560000000    -0.286959   
O        O      0.080900000000     0.026800000000     0.244850000000    -0.286959   
O        O      0.544100000000     0.383500000000     0.453930000000    -0.286959   
O        O      0.425800000000     0.332200000000     0.401350000000    -0.286959   
O        O      0.266300000000     0.398400000000     0.644590000000    -0.286959   
O        O      0.425100000000     0.453700000000     0.622410000000    -0.286959   
O        O      0.171400000000     0.059300000000     0.482740000000    -0.286959   
O        O      0.059200000000     0.160200000000     0.526010000000    -0.286959   


