data_RELLAW_original

_audit_creation_method RASPA-1.0
_audit_creation_date 2022-1-30
_audit_author_name 'Felipe Lopes de Oliveira <felipe.lopes.oliveira@ibm.com>'

_cell_length_a    16.1578
_cell_length_b    18.1039
_cell_length_c    18.807
_cell_angle_alpha 90
_cell_angle_beta  90
_cell_angle_gamma 92.615
_cell_volume      5495.68

_symmetry_cell_setting          triclinic
_symmetry_space_group_name_Hall 'P 1'
_symmetry_space_group_name_H-M  'P 1'
_symmetry_Int_Tables_number     1

_symmetry_equiv_pos_as_xyz 'x,y,z'

loop_
_atom_site_label
_atom_site_type_symbol
_atom_site_fract_x
_atom_site_fract_y
_atom_site_fract_z
_atom_site_charge
Zn       Zn     0.634550000000     0.327660000000     0.499800000000     0.467216   
Zn       Zn     0.814210000000     0.357820000000     0.500780000000     0.467216   
Zn       Zn     0.634550000000     0.827660000000     0.000200000000     0.467216   
Zn       Zn     0.814210000000     0.857820000000     0.999220000000     0.467216   
Zn       Zn     0.365450000000     0.172340000000     0.999800000000     0.467216   
Zn       Zn     0.185790000000     0.142170000000     0.000780000000     0.467216   
Zn       Zn     0.365450000000     0.672340000000     0.500200000000     0.467216   
Zn       Zn     0.185790000000     0.642170000000     0.499220000000     0.467216   
H        H      0.576000000000     0.495000000000     0.653000000000     0.0566827  
H        H      0.558000000000     0.586400000000     0.743300000000     0.0566827  
H        H      0.629000000000     0.666500000000     0.835800000000     0.0566827  
H        H      0.873000000000     0.664600000000     0.873000000000     0.0566827  
H        H      0.885000000000     0.568800000000     0.788800000000     0.0566827  
H        H      0.825400000000     0.487000000000     0.692800000000     0.0566827  
H        H      0.585000000000     0.469200000000     0.322500000000     0.0566827  
H        H      0.570000000000     0.549700000000     0.228800000000     0.0566827  
H        H      0.631400000000     0.648600000000     0.150400000000     0.0566827  
H        H      0.863000000000     0.732900000000     0.191300000000     0.0566827  
H        H      0.884000000000     0.647200000000     0.281700000000     0.0566827  
H        H      0.821700000000     0.548600000000     0.358700000000     0.0566827  
H        H      0.955900000000     0.307700000000     0.575800000000     0.0566827  
H        H      0.102000000000     0.312000000000     0.574000000000     0.0566827  
H        H      0.226000000000     0.431000000000     0.467600000000     0.0566827  
H        H      0.225000000000     0.289100000000     0.531400000000     0.0566827  
H        H      0.344000000000     0.228000000000     0.532000000000     0.0566827  
H        H      0.485000000000     0.224000000000     0.525000000000     0.0566827  
H        H      0.504000000000     0.428600000000     0.480900000000     0.0566827  
H        H      0.371000000000     0.438800000000     0.485000000000     0.0566827  
H        H      0.085700000000     0.457400000000     0.415800000000     0.0566827  
H        H      0.946300000000     0.444700000000     0.420900000000     0.0566827  
H        H      0.576000000000     0.995000000000     0.847000000000     0.0566827  
H        H      0.558000000000     0.086400000000     0.756700000000     0.0566827  
H        H      0.629000000000     0.166500000000     0.664200000000     0.0566827  
H        H      0.873000000000     0.164600000000     0.627000000000     0.0566827  
H        H      0.885000000000     0.068800000000     0.711200000000     0.0566827  
H        H      0.825400000000     0.987000000000     0.807200000000     0.0566827  
H        H      0.585000000000     0.969200000000     0.177500000000     0.0566827  
H        H      0.570000000000     0.049700000000     0.271200000000     0.0566827  
H        H      0.631400000000     0.148600000000     0.349600000000     0.0566827  
H        H      0.863000000000     0.232900000000     0.308700000000     0.0566827  
H        H      0.884000000000     0.147200000000     0.218300000000     0.0566827  
H        H      0.821700000000     0.048600000000     0.141300000000     0.0566827  
H        H      0.955900000000     0.807700000000     0.924200000000     0.0566827  
H        H      0.102000000000     0.812000000000     0.926000000000     0.0566827  
H        H      0.226000000000     0.931000000000     0.032400000000     0.0566827  
H        H      0.225000000000     0.789100000000     0.968600000000     0.0566827  
H        H      0.344000000000     0.728000000000     0.968000000000     0.0566827  
H        H      0.485000000000     0.724000000000     0.975000000000     0.0566827  
H        H      0.504000000000     0.928600000000     0.019100000000     0.0566827  
H        H      0.371000000000     0.938800000000     0.015000000000     0.0566827  
H        H      0.085700000000     0.957400000000     0.084200000000     0.0566827  
H        H      0.946300000000     0.944700000000     0.079100000000     0.0566827  
H        H      0.424000000000     0.005000000000     0.153000000000     0.0566827  
H        H      0.442000000000     0.913600000000     0.243300000000     0.0566827  
H        H      0.371000000000     0.833500000000     0.335800000000     0.0566827  
H        H      0.127000000000     0.835400000000     0.373000000000     0.0566827  
H        H      0.115000000000     0.931200000000     0.288800000000     0.0566827  
H        H      0.174600000000     0.013000000000     0.192800000000     0.0566827  
H        H      0.415000000000     0.030800000000     0.822500000000     0.0566827  
H        H      0.430000000000     0.950300000000     0.728800000000     0.0566827  
H        H      0.368600000000     0.851400000000     0.650400000000     0.0566827  
H        H      0.137000000000     0.767100000000     0.691300000000     0.0566827  
H        H      0.116000000000     0.852800000000     0.781700000000     0.0566827  
H        H      0.178300000000     0.951400000000     0.858700000000     0.0566827  
H        H      0.044100000000     0.192300000000     0.075800000000     0.0566827  
H        H      0.898000000000     0.188000000000     0.074000000000     0.0566827  
H        H      0.774000000000     0.069000000000     0.967600000000     0.0566827  
H        H      0.775000000000     0.210900000000     0.031400000000     0.0566827  
H        H      0.656000000000     0.272000000000     0.032000000000     0.0566827  
H        H      0.515000000000     0.276000000000     0.025000000000     0.0566827  
H        H      0.496000000000     0.071400000000     0.980900000000     0.0566827  
H        H      0.629000000000     0.061200000000     0.985000000000     0.0566827  
H        H      0.914300000000     0.042600000000     0.915800000000     0.0566827  
H        H      0.053700000000     0.055300000000     0.920900000000     0.0566827  
H        H      0.424000000000     0.505000000000     0.347000000000     0.0566827  
H        H      0.442000000000     0.413600000000     0.256700000000     0.0566827  
H        H      0.371000000000     0.333500000000     0.164200000000     0.0566827  
H        H      0.127000000000     0.335400000000     0.127000000000     0.0566827  
H        H      0.115000000000     0.431200000000     0.211200000000     0.0566827  
H        H      0.174600000000     0.513000000000     0.307200000000     0.0566827  
H        H      0.415000000000     0.530800000000     0.677500000000     0.0566827  
H        H      0.430000000000     0.450300000000     0.771200000000     0.0566827  
H        H      0.368600000000     0.351400000000     0.849600000000     0.0566827  
H        H      0.137000000000     0.267100000000     0.808700000000     0.0566827  
H        H      0.116000000000     0.352800000000     0.718300000000     0.0566827  
H        H      0.178300000000     0.451400000000     0.641300000000     0.0566827  
H        H      0.044100000000     0.692300000000     0.424200000000     0.0566827  
H        H      0.898000000000     0.688000000000     0.426000000000     0.0566827  
H        H      0.774000000000     0.569000000000     0.532400000000     0.0566827  
H        H      0.775000000000     0.710900000000     0.468600000000     0.0566827  
H        H      0.656000000000     0.772000000000     0.468000000000     0.0566827  
H        H      0.515000000000     0.776000000000     0.475000000000     0.0566827  
H        H      0.496000000000     0.571400000000     0.519100000000     0.0566827  
H        H      0.629000000000     0.561200000000     0.515000000000     0.0566827  
H        H      0.914300000000     0.542600000000     0.584200000000     0.0566827  
H        H      0.053700000000     0.555300000000     0.579100000000     0.0566827  
C        C      0.711770000000     0.433490000000     0.604080000000     0.0142738  
C        C      0.702570000000     0.486410000000     0.664620000000     0.0142738  
C        C      0.623390000000     0.512990000000     0.680470000000     0.0142738  
C        C      0.614550000000     0.564060000000     0.732510000000     0.0142738  
C        C      0.684370000000     0.591590000000     0.771850000000     0.0142738  
C        C      0.678200000000     0.647210000000     0.823760000000     0.0142738  
C        C      0.746970000000     0.674900000000     0.859650000000     0.0142738  
C        C      0.824830000000     0.645010000000     0.846670000000     0.0142738  
C        C      0.832790000000     0.590540000000     0.797490000000     0.0142738  
C        C      0.763350000000     0.563160000000     0.757700000000     0.0142738  
C        C      0.770150000000     0.510230000000     0.703420000000     0.0142738  
C        C      0.738990000000     0.736590000000     0.912010000000     0.0142738  
C        C      0.711900000000     0.445720000000     0.408520000000     0.0142738  
C        C      0.703810000000     0.501380000000     0.350420000000     0.0142738  
C        C      0.628720000000     0.503630000000     0.312130000000     0.0142738  
C        C      0.620720000000     0.551000000000     0.257250000000     0.0142738  
C        C      0.687180000000     0.600520000000     0.237330000000     0.0142738  
C        C      0.680900000000     0.650940000000     0.180430000000     0.0142738  
C        C      0.745970000000     0.698250000000     0.162490000000     0.0142738  
C        C      0.820900000000     0.696460000000     0.200730000000     0.0142738  
C        C      0.829570000000     0.648740000000     0.255650000000     0.0142738  
C        C      0.762710000000     0.599500000000     0.275850000000     0.0142738  
C        C      0.769200000000     0.548560000000     0.332250000000     0.0142738  
C        C      0.736350000000     0.751330000000     0.102290000000     0.0142738  
C        C      0.984160000000     0.336130000000     0.544690000000     0.0142738  
C        C      0.069420000000     0.339500000000     0.543940000000     0.0142738  
C        C      0.111410000000     0.383710000000     0.493980000000     0.0142738  
C        C      0.201850000000     0.386210000000     0.488810000000     0.0142738  
C        C      0.247710000000     0.332780000000     0.512640000000     0.0142738  
C        C      0.338100000000     0.331650000000     0.508300000000     0.0142738  
C        C      0.377090000000     0.266150000000     0.520900000000     0.0142738  
C        C      0.461770000000     0.264620000000     0.516410000000     0.0142738  
C        C      0.471930000000     0.387630000000     0.489010000000     0.0142738  
C        C      0.388300000000     0.393660000000     0.492250000000     0.0142738  
C        C      0.063930000000     0.425220000000     0.449280000000     0.0142738  
C        C      0.978810000000     0.418420000000     0.453010000000     0.0142738  
C        C      0.711770000000     0.933490000000     0.895920000000     0.0142738  
C        C      0.702570000000     0.986410000000     0.835380000000     0.0142738  
C        C      0.623390000000     0.012990000000     0.819530000000     0.0142738  
C        C      0.614550000000     0.064060000000     0.767490000000     0.0142738  
C        C      0.684370000000     0.091590000000     0.728150000000     0.0142738  
C        C      0.678200000000     0.147210000000     0.676240000000     0.0142738  
C        C      0.746970000000     0.174900000000     0.640350000000     0.0142738  
C        C      0.824830000000     0.145010000000     0.653330000000     0.0142738  
C        C      0.832790000000     0.090540000000     0.702510000000     0.0142738  
C        C      0.763350000000     0.063160000000     0.742300000000     0.0142738  
C        C      0.770150000000     0.010230000000     0.796580000000     0.0142738  
C        C      0.738990000000     0.236590000000     0.587990000000     0.0142738  
C        C      0.711900000000     0.945720000000     0.091480000000     0.0142738  
C        C      0.703810000000     0.001380000000     0.149580000000     0.0142738  
C        C      0.628720000000     0.003630000000     0.187870000000     0.0142738  
C        C      0.620720000000     0.051000000000     0.242750000000     0.0142738  
C        C      0.687180000000     0.100520000000     0.262670000000     0.0142738  
C        C      0.680900000000     0.150940000000     0.319570000000     0.0142738  
C        C      0.745970000000     0.198250000000     0.337510000000     0.0142738  
C        C      0.820900000000     0.196460000000     0.299270000000     0.0142738  
C        C      0.829570000000     0.148740000000     0.244350000000     0.0142738  
C        C      0.762710000000     0.099500000000     0.224150000000     0.0142738  
C        C      0.769200000000     0.048560000000     0.167750000000     0.0142738  
C        C      0.736350000000     0.251330000000     0.397710000000     0.0142738  
C        C      0.984160000000     0.836130000000     0.955310000000     0.0142738  
C        C      0.069420000000     0.839500000000     0.956060000000     0.0142738  
C        C      0.111410000000     0.883710000000     0.006020000000     0.0142738  
C        C      0.201850000000     0.886210000000     0.011190000000     0.0142738  
C        C      0.247710000000     0.832780000000     0.987360000000     0.0142738  
C        C      0.338100000000     0.831650000000     0.991700000000     0.0142738  
C        C      0.377090000000     0.766150000000     0.979100000000     0.0142738  
C        C      0.461770000000     0.764620000000     0.983590000000     0.0142738  
C        C      0.471930000000     0.887630000000     0.010990000000     0.0142738  
C        C      0.388300000000     0.893660000000     0.007750000000     0.0142738  
C        C      0.063930000000     0.925220000000     0.050720000000     0.0142738  
C        C      0.978810000000     0.918420000000     0.046990000000     0.0142738  
C        C      0.288230000000     0.066510000000     0.104080000000     0.0142738  
C        C      0.297430000000     0.013590000000     0.164620000000     0.0142738  
C        C      0.376610000000     0.987010000000     0.180470000000     0.0142738  
C        C      0.385450000000     0.935940000000     0.232510000000     0.0142738  
C        C      0.315630000000     0.908410000000     0.271850000000     0.0142738  
C        C      0.321800000000     0.852790000000     0.323760000000     0.0142738  
C        C      0.253030000000     0.825100000000     0.359650000000     0.0142738  
C        C      0.175170000000     0.854990000000     0.346670000000     0.0142738  
C        C      0.167210000000     0.909460000000     0.297490000000     0.0142738  
C        C      0.236650000000     0.936840000000     0.257700000000     0.0142738  
C        C      0.229850000000     0.989770000000     0.203420000000     0.0142738  
C        C      0.261010000000     0.763410000000     0.412010000000     0.0142738  
C        C      0.288100000000     0.054280000000     0.908520000000     0.0142738  
C        C      0.296190000000     0.998620000000     0.850420000000     0.0142738  
C        C      0.371280000000     0.996370000000     0.812130000000     0.0142738  
C        C      0.379280000000     0.949000000000     0.757250000000     0.0142738  
C        C      0.312820000000     0.899480000000     0.737330000000     0.0142738  
C        C      0.319100000000     0.849060000000     0.680430000000     0.0142738  
C        C      0.254030000000     0.801750000000     0.662490000000     0.0142738  
C        C      0.179100000000     0.803540000000     0.700730000000     0.0142738  
C        C      0.170430000000     0.851260000000     0.755650000000     0.0142738  
C        C      0.237290000000     0.900500000000     0.775850000000     0.0142738  
C        C      0.230800000000     0.951440000000     0.832250000000     0.0142738  
C        C      0.263650000000     0.748670000000     0.602290000000     0.0142738  
C        C      0.015840000000     0.163870000000     0.044690000000     0.0142738  
C        C      0.930580000000     0.160500000000     0.043940000000     0.0142738  
C        C      0.888590000000     0.116290000000     0.993980000000     0.0142738  
C        C      0.798150000000     0.113790000000     0.988810000000     0.0142738  
C        C      0.752290000000     0.167220000000     0.012640000000     0.0142738  
C        C      0.661900000000     0.168350000000     0.008300000000     0.0142738  
C        C      0.622910000000     0.233850000000     0.020900000000     0.0142738  
C        C      0.538230000000     0.235380000000     0.016410000000     0.0142738  
C        C      0.528070000000     0.112370000000     0.989010000000     0.0142738  
C        C      0.611700000000     0.106340000000     0.992250000000     0.0142738  
C        C      0.936070000000     0.074780000000     0.949280000000     0.0142738  
C        C      0.021190000000     0.081580000000     0.953010000000     0.0142738  
C        C      0.288230000000     0.566510000000     0.395920000000     0.0142738  
C        C      0.297430000000     0.513590000000     0.335380000000     0.0142738  
C        C      0.376610000000     0.487010000000     0.319530000000     0.0142738  
C        C      0.385450000000     0.435940000000     0.267490000000     0.0142738  
C        C      0.315630000000     0.408410000000     0.228150000000     0.0142738  
C        C      0.321800000000     0.352790000000     0.176240000000     0.0142738  
C        C      0.253030000000     0.325100000000     0.140350000000     0.0142738  
C        C      0.175170000000     0.354990000000     0.153330000000     0.0142738  
C        C      0.167210000000     0.409460000000     0.202510000000     0.0142738  
C        C      0.236650000000     0.436840000000     0.242300000000     0.0142738  
C        C      0.229850000000     0.489770000000     0.296580000000     0.0142738  
C        C      0.261010000000     0.263410000000     0.087990000000     0.0142738  
C        C      0.288100000000     0.554280000000     0.591480000000     0.0142738  
C        C      0.296190000000     0.498620000000     0.649580000000     0.0142738  
C        C      0.371280000000     0.496370000000     0.687870000000     0.0142738  
C        C      0.379280000000     0.449000000000     0.742750000000     0.0142738  
C        C      0.312820000000     0.399480000000     0.762670000000     0.0142738  
C        C      0.319100000000     0.349060000000     0.819570000000     0.0142738  
C        C      0.254030000000     0.301750000000     0.837510000000     0.0142738  
C        C      0.179100000000     0.303540000000     0.799270000000     0.0142738  
C        C      0.170430000000     0.351260000000     0.744350000000     0.0142738  
C        C      0.237290000000     0.400500000000     0.724150000000     0.0142738  
C        C      0.230800000000     0.451440000000     0.667750000000     0.0142738  
C        C      0.263650000000     0.248670000000     0.897710000000     0.0142738  
C        C      0.015840000000     0.663870000000     0.455310000000     0.0142738  
C        C      0.930580000000     0.660500000000     0.456060000000     0.0142738  
C        C      0.888590000000     0.616290000000     0.506020000000     0.0142738  
C        C      0.798150000000     0.613790000000     0.511190000000     0.0142738  
C        C      0.752290000000     0.667220000000     0.487360000000     0.0142738  
C        C      0.661900000000     0.668350000000     0.491700000000     0.0142738  
C        C      0.622910000000     0.733850000000     0.479100000000     0.0142738  
C        C      0.538230000000     0.735380000000     0.483590000000     0.0142738  
C        C      0.528070000000     0.612370000000     0.510990000000     0.0142738  
C        C      0.611700000000     0.606340000000     0.507750000000     0.0142738  
C        C      0.936070000000     0.574780000000     0.550720000000     0.0142738  
C        C      0.021190000000     0.581580000000     0.546990000000     0.0142738  
N        N      0.938670000000     0.373810000000     0.499220000000    -0.184864   
N        N      0.509490000000     0.324080000000     0.500690000000    -0.184864   
N        N      0.938670000000     0.873810000000     0.000780000000    -0.184864   
N        N      0.509490000000     0.824080000000     0.999310000000    -0.184864   
N        N      0.061330000000     0.126190000000     0.999220000000    -0.184864   
N        N      0.490510000000     0.175920000000     0.000690000000    -0.184864   
N        N      0.061330000000     0.626190000000     0.500780000000    -0.184864   
N        N      0.490510000000     0.675920000000     0.499310000000    -0.184864   
O        O      0.647010000000     0.414620000000     0.569940000000    -0.290697   
O        O      0.783190000000     0.412330000000     0.591030000000    -0.290697   
O        O      0.804340000000     0.761610000000     0.941380000000    -0.290697   
O        O      0.667430000000     0.759300000000     0.921520000000    -0.290697   
O        O      0.780370000000     0.445330000000     0.441000000000    -0.290697   
O        O      0.649970000000     0.403500000000     0.420200000000    -0.290697   
O        O      0.667720000000     0.750070000000     0.070860000000    -0.290697   
O        O      0.798280000000     0.793870000000     0.088260000000    -0.290697   
O        O      0.647010000000     0.914620000000     0.930060000000    -0.290697   
O        O      0.783190000000     0.912330000000     0.908970000000    -0.290697   
O        O      0.804340000000     0.261610000000     0.558620000000    -0.290697   
O        O      0.667430000000     0.259300000000     0.578480000000    -0.290697   
O        O      0.780370000000     0.945330000000     0.059000000000    -0.290697   
O        O      0.649970000000     0.903500000000     0.079800000000    -0.290697   
O        O      0.667720000000     0.250070000000     0.429140000000    -0.290697   
O        O      0.798280000000     0.293870000000     0.411740000000    -0.290697   
O        O      0.352990000000     0.085380000000     0.069940000000    -0.290697   
O        O      0.216810000000     0.087670000000     0.091030000000    -0.290697   
O        O      0.195660000000     0.738390000000     0.441380000000    -0.290697   
O        O      0.332570000000     0.740700000000     0.421520000000    -0.290697   
O        O      0.219630000000     0.054670000000     0.941000000000    -0.290697   
O        O      0.350030000000     0.096500000000     0.920200000000    -0.290697   
O        O      0.332280000000     0.749930000000     0.570860000000    -0.290697   
O        O      0.201720000000     0.706130000000     0.588260000000    -0.290697   
O        O      0.352990000000     0.585380000000     0.430060000000    -0.290697   
O        O      0.216810000000     0.587670000000     0.408970000000    -0.290697   
O        O      0.195660000000     0.238390000000     0.058620000000    -0.290697   
O        O      0.332570000000     0.240700000000     0.078480000000    -0.290697   
O        O      0.219630000000     0.554670000000     0.559000000000    -0.290697   
O        O      0.350030000000     0.596500000000     0.579800000000    -0.290697   
O        O      0.332280000000     0.249930000000     0.929140000000    -0.290697   
O        O      0.201720000000     0.206130000000     0.911740000000    -0.290697   


