data_RETBEZ_original

_audit_creation_method RASPA-1.0
_audit_creation_date 2022-1-28
_audit_author_name 'Felipe Lopes de Oliveira <felipe.lopes.oliveira@ibm.com>'

_cell_length_a    11.253
_cell_length_b    18.172
_cell_length_c    25.161
_cell_angle_alpha 90
_cell_angle_beta  90
_cell_angle_gamma 90
_cell_volume      5145.16

_symmetry_cell_setting          triclinic
_symmetry_space_group_name_Hall 'P 1'
_symmetry_space_group_name_H-M  'P 1'
_symmetry_Int_Tables_number     1

_symmetry_equiv_pos_as_xyz 'x,y,z'

loop_
_atom_site_label
_atom_site_type_symbol
_atom_site_fract_x
_atom_site_fract_y
_atom_site_fract_z
_atom_site_charge
Zn       Zn     0.620270000000     0.926410000000     0.025370000000     0.449232   
Zn       Zn     0.379730000000     0.926410000000     0.474630000000     0.449232   
Zn       Zn     0.620270000000     0.573590000000     0.974630000000     0.449232   
Zn       Zn     0.379730000000     0.573590000000     0.525370000000     0.449232   
Zn       Zn     0.379730000000     0.073590000000     0.974630000000     0.449232   
Zn       Zn     0.620270000000     0.073590000000     0.525370000000     0.449232   
Zn       Zn     0.379730000000     0.426410000000     0.025370000000     0.449232   
Zn       Zn     0.620270000000     0.426410000000     0.474630000000     0.449232   
Zn       Zn     0.000000000000     0.709850000000     0.750000000000     0.449232   
Zn       Zn     0.000000000000     0.790150000000     0.250000000000     0.449232   
Zn       Zn     0.000000000000     0.290150000000     0.250000000000     0.449232   
Zn       Zn     0.000000000000     0.209850000000     0.750000000000     0.449232   
H        H      0.510100000000     0.792800000000     0.948700000000     0.0548213  
H        H      0.295100000000     0.687100000000     0.848000000000     0.0548213  
H        H      0.274800000000     0.906000000000     0.860800000000     0.0548213  
H        H      0.735500000000     0.985100000000     0.921900000000     0.0548213  
H        H      0.873100000000     0.017100000000     0.857000000000     0.0548213  
H        H      0.072700000000     0.988900000000     0.867500000000     0.0548213  
H        H      0.140600000000     0.928000000000     0.941100000000     0.0548213  
H        H      0.952600000000     0.869400000000     0.140200000000     0.0548213  
H        H      0.734500000000     0.750200000000     0.049200000000     0.0548213  
H        H      0.709200000000     0.671100000000     0.119800000000     0.0548213  
H        H      0.810300000000     0.691400000000     0.197500000000     0.0548213  
H        H      0.163500000000     0.865500000000     0.024300000000     0.0548213  
H        H      0.101500000000     0.849000000000     0.078800000000     0.0548213  
H        H      0.035600000000     0.734700000000     0.045800000000     0.0548213  
H        H      0.174600000000     0.739200000000     0.045100000000     0.0548213  
H        H      0.489900000000     0.792800000000     0.551300000000     0.0548213  
H        H      0.704900000000     0.687100000000     0.652000000000     0.0548213  
H        H      0.725200000000     0.906000000000     0.639200000000     0.0548213  
H        H      0.264500000000     0.985100000000     0.578100000000     0.0548213  
H        H      0.126900000000     0.017100000000     0.643000000000     0.0548213  
H        H      0.927300000000     0.988900000000     0.632500000000     0.0548213  
H        H      0.859400000000     0.928000000000     0.558900000000     0.0548213  
H        H      0.047400000000     0.869400000000     0.359800000000     0.0548213  
H        H      0.265500000000     0.750200000000     0.450800000000     0.0548213  
H        H      0.290800000000     0.671100000000     0.380200000000     0.0548213  
H        H      0.189700000000     0.691400000000     0.302500000000     0.0548213  
H        H      0.836500000000     0.865500000000     0.475700000000     0.0548213  
H        H      0.898500000000     0.849000000000     0.421200000000     0.0548213  
H        H      0.964400000000     0.734700000000     0.454200000000     0.0548213  
H        H      0.825400000000     0.739200000000     0.454900000000     0.0548213  
H        H      0.510100000000     0.707200000000     0.051300000000     0.0548213  
H        H      0.295100000000     0.812900000000     0.152000000000     0.0548213  
H        H      0.274800000000     0.594000000000     0.139200000000     0.0548213  
H        H      0.735500000000     0.514900000000     0.078100000000     0.0548213  
H        H      0.873100000000     0.482900000000     0.143000000000     0.0548213  
H        H      0.072700000000     0.511100000000     0.132500000000     0.0548213  
H        H      0.140600000000     0.572000000000     0.058900000000     0.0548213  
H        H      0.952600000000     0.630600000000     0.859800000000     0.0548213  
H        H      0.734500000000     0.749800000000     0.950800000000     0.0548213  
H        H      0.709200000000     0.828900000000     0.880200000000     0.0548213  
H        H      0.810300000000     0.808600000000     0.802500000000     0.0548213  
H        H      0.163500000000     0.634500000000     0.975700000000     0.0548213  
H        H      0.101500000000     0.651000000000     0.921200000000     0.0548213  
H        H      0.035600000000     0.765300000000     0.954200000000     0.0548213  
H        H      0.174600000000     0.760800000000     0.954900000000     0.0548213  
H        H      0.489900000000     0.707200000000     0.448700000000     0.0548213  
H        H      0.704900000000     0.812900000000     0.348000000000     0.0548213  
H        H      0.725200000000     0.594000000000     0.360800000000     0.0548213  
H        H      0.264500000000     0.514900000000     0.421900000000     0.0548213  
H        H      0.126900000000     0.482900000000     0.357000000000     0.0548213  
H        H      0.927300000000     0.511100000000     0.367500000000     0.0548213  
H        H      0.859400000000     0.572000000000     0.441100000000     0.0548213  
H        H      0.047400000000     0.630600000000     0.640200000000     0.0548213  
H        H      0.265500000000     0.749800000000     0.549200000000     0.0548213  
H        H      0.290800000000     0.828900000000     0.619800000000     0.0548213  
H        H      0.189700000000     0.808600000000     0.697500000000     0.0548213  
H        H      0.836500000000     0.634500000000     0.524300000000     0.0548213  
H        H      0.898500000000     0.651000000000     0.578800000000     0.0548213  
H        H      0.964400000000     0.765300000000     0.545800000000     0.0548213  
H        H      0.825400000000     0.760800000000     0.545100000000     0.0548213  
H        H      0.489900000000     0.207200000000     0.051300000000     0.0548213  
H        H      0.704900000000     0.312900000000     0.152000000000     0.0548213  
H        H      0.725200000000     0.094000000000     0.139200000000     0.0548213  
H        H      0.264500000000     0.014900000000     0.078100000000     0.0548213  
H        H      0.126900000000     0.982900000000     0.143000000000     0.0548213  
H        H      0.927300000000     0.011100000000     0.132500000000     0.0548213  
H        H      0.859400000000     0.072000000000     0.058900000000     0.0548213  
H        H      0.047400000000     0.130600000000     0.859800000000     0.0548213  
H        H      0.265500000000     0.249800000000     0.950800000000     0.0548213  
H        H      0.290800000000     0.328900000000     0.880200000000     0.0548213  
H        H      0.189700000000     0.308600000000     0.802500000000     0.0548213  
H        H      0.836500000000     0.134500000000     0.975700000000     0.0548213  
H        H      0.898500000000     0.151000000000     0.921200000000     0.0548213  
H        H      0.964400000000     0.265300000000     0.954200000000     0.0548213  
H        H      0.825400000000     0.260800000000     0.954900000000     0.0548213  
H        H      0.510100000000     0.207200000000     0.448700000000     0.0548213  
H        H      0.295100000000     0.312900000000     0.348000000000     0.0548213  
H        H      0.274800000000     0.094000000000     0.360800000000     0.0548213  
H        H      0.735500000000     0.014900000000     0.421900000000     0.0548213  
H        H      0.873100000000     0.982900000000     0.357000000000     0.0548213  
H        H      0.072700000000     0.011100000000     0.367500000000     0.0548213  
H        H      0.140600000000     0.072000000000     0.441100000000     0.0548213  
H        H      0.952600000000     0.130600000000     0.640200000000     0.0548213  
H        H      0.734500000000     0.249800000000     0.549200000000     0.0548213  
H        H      0.709200000000     0.328900000000     0.619800000000     0.0548213  
H        H      0.810300000000     0.308600000000     0.697500000000     0.0548213  
H        H      0.163500000000     0.134500000000     0.524300000000     0.0548213  
H        H      0.101500000000     0.151000000000     0.578800000000     0.0548213  
H        H      0.035600000000     0.265300000000     0.545800000000     0.0548213  
H        H      0.174600000000     0.260800000000     0.545100000000     0.0548213  
H        H      0.489900000000     0.292800000000     0.948700000000     0.0548213  
H        H      0.704900000000     0.187100000000     0.848000000000     0.0548213  
H        H      0.725200000000     0.406000000000     0.860800000000     0.0548213  
H        H      0.264500000000     0.485100000000     0.921900000000     0.0548213  
H        H      0.126900000000     0.517100000000     0.857000000000     0.0548213  
H        H      0.927300000000     0.488900000000     0.867500000000     0.0548213  
H        H      0.859400000000     0.428000000000     0.941100000000     0.0548213  
H        H      0.047400000000     0.369400000000     0.140200000000     0.0548213  
H        H      0.265500000000     0.250200000000     0.049200000000     0.0548213  
H        H      0.290800000000     0.171100000000     0.119800000000     0.0548213  
H        H      0.189700000000     0.191400000000     0.197500000000     0.0548213  
H        H      0.836500000000     0.365500000000     0.024300000000     0.0548213  
H        H      0.898500000000     0.349000000000     0.078800000000     0.0548213  
H        H      0.964400000000     0.234700000000     0.045800000000     0.0548213  
H        H      0.825400000000     0.239200000000     0.045100000000     0.0548213  
H        H      0.510100000000     0.292800000000     0.551300000000     0.0548213  
H        H      0.295100000000     0.187100000000     0.652000000000     0.0548213  
H        H      0.274800000000     0.406000000000     0.639200000000     0.0548213  
H        H      0.735500000000     0.485100000000     0.578100000000     0.0548213  
H        H      0.873100000000     0.517100000000     0.643000000000     0.0548213  
H        H      0.072700000000     0.488900000000     0.632500000000     0.0548213  
H        H      0.140600000000     0.428000000000     0.558900000000     0.0548213  
H        H      0.952600000000     0.369400000000     0.359800000000     0.0548213  
H        H      0.734500000000     0.250200000000     0.450800000000     0.0548213  
H        H      0.709200000000     0.171100000000     0.380200000000     0.0548213  
H        H      0.810300000000     0.191400000000     0.302500000000     0.0548213  
H        H      0.163500000000     0.365500000000     0.475700000000     0.0548213  
H        H      0.101500000000     0.349000000000     0.421200000000     0.0548213  
H        H      0.035600000000     0.234700000000     0.454200000000     0.0548213  
H        H      0.174600000000     0.239200000000     0.454900000000     0.0548213  
C        C      0.436400000000     0.929200000000     0.936400000000     0.0309245  
C        C      0.397700000000     0.860700000000     0.908900000000     0.0309245  
C        C      0.449400000000     0.793700000000     0.923600000000     0.0309245  
C        C      0.410600000000     0.729400000000     0.901100000000     0.0309245  
C        C      0.321400000000     0.730900000000     0.863100000000     0.0309245  
C        C      0.271200000000     0.796900000000     0.847300000000     0.0309245  
C        C      0.309100000000     0.861500000000     0.870700000000     0.0309245  
C        C      0.172700000000     0.796300000000     0.806700000000     0.0309245  
C        C      0.463800000000     0.657700000000     0.918000000000     0.0309245  
C        C      0.855800000000     0.932300000000     0.968700000000     0.0309245  
C        C      0.815100000000     0.972200000000     0.925300000000     0.0309245  
C        C      0.897800000000     0.992000000000     0.887200000000     0.0309245  
C        C      0.019100000000     0.974600000000     0.893700000000     0.0309245  
C        C      0.060100000000     0.937800000000     0.936800000000     0.0309245  
C        C      0.976100000000     0.915000000000     0.974400000000     0.0309245  
C        C      0.874100000000     0.866600000000     0.040810000000     0.0309245  
C        C      0.849200000000     0.819100000000     0.087100000000     0.0309245  
C        C      0.903700000000     0.828700000000     0.135500000000     0.0309245  
C        C      0.773900000000     0.758400000000     0.081100000000     0.0309245  
C        C      0.759400000000     0.711500000000     0.122800000000     0.0309245  
C        C      0.819500000000     0.724500000000     0.169600000000     0.0309245  
C        C      0.096200000000     0.841200000000     0.040700000000     0.0309245  
C        C      0.102800000000     0.758900000000     0.029200000000     0.0309245  
C        C      0.563600000000     0.929200000000     0.563600000000     0.0309245  
C        C      0.602300000000     0.860700000000     0.591100000000     0.0309245  
C        C      0.550600000000     0.793700000000     0.576400000000     0.0309245  
C        C      0.589400000000     0.729400000000     0.598900000000     0.0309245  
C        C      0.678600000000     0.730900000000     0.636900000000     0.0309245  
C        C      0.728800000000     0.796900000000     0.652700000000     0.0309245  
C        C      0.690900000000     0.861500000000     0.629300000000     0.0309245  
C        C      0.827300000000     0.796300000000     0.693300000000     0.0309245  
C        C      0.536200000000     0.657700000000     0.582000000000     0.0309245  
C        C      0.144200000000     0.932300000000     0.531300000000     0.0309245  
C        C      0.184900000000     0.972200000000     0.574700000000     0.0309245  
C        C      0.102200000000     0.992000000000     0.612800000000     0.0309245  
C        C      0.980900000000     0.974600000000     0.606300000000     0.0309245  
C        C      0.939900000000     0.937800000000     0.563200000000     0.0309245  
C        C      0.023900000000     0.915000000000     0.525600000000     0.0309245  
C        C      0.125900000000     0.866600000000     0.459190000000     0.0309245  
C        C      0.150800000000     0.819100000000     0.412900000000     0.0309245  
C        C      0.096300000000     0.828700000000     0.364500000000     0.0309245  
C        C      0.226100000000     0.758400000000     0.418900000000     0.0309245  
C        C      0.240600000000     0.711500000000     0.377200000000     0.0309245  
C        C      0.180500000000     0.724500000000     0.330400000000     0.0309245  
C        C      0.903800000000     0.841200000000     0.459300000000     0.0309245  
C        C      0.897200000000     0.758900000000     0.470800000000     0.0309245  
C        C      0.436400000000     0.570800000000     0.063600000000     0.0309245  
C        C      0.397700000000     0.639300000000     0.091100000000     0.0309245  
C        C      0.449400000000     0.706300000000     0.076400000000     0.0309245  
C        C      0.410600000000     0.770600000000     0.098900000000     0.0309245  
C        C      0.321400000000     0.769100000000     0.136900000000     0.0309245  
C        C      0.271200000000     0.703100000000     0.152700000000     0.0309245  
C        C      0.309100000000     0.638500000000     0.129300000000     0.0309245  
C        C      0.172700000000     0.703700000000     0.193300000000     0.0309245  
C        C      0.463800000000     0.842300000000     0.082000000000     0.0309245  
C        C      0.855800000000     0.567700000000     0.031300000000     0.0309245  
C        C      0.815100000000     0.527800000000     0.074700000000     0.0309245  
C        C      0.897800000000     0.508000000000     0.112800000000     0.0309245  
C        C      0.019100000000     0.525400000000     0.106300000000     0.0309245  
C        C      0.060100000000     0.562200000000     0.063200000000     0.0309245  
C        C      0.976100000000     0.585000000000     0.025600000000     0.0309245  
C        C      0.874100000000     0.633400000000     0.959190000000     0.0309245  
C        C      0.849200000000     0.680900000000     0.912900000000     0.0309245  
C        C      0.903700000000     0.671300000000     0.864500000000     0.0309245  
C        C      0.773900000000     0.741600000000     0.918900000000     0.0309245  
C        C      0.759400000000     0.788500000000     0.877200000000     0.0309245  
C        C      0.819500000000     0.775500000000     0.830400000000     0.0309245  
C        C      0.096200000000     0.658800000000     0.959300000000     0.0309245  
C        C      0.102800000000     0.741100000000     0.970800000000     0.0309245  
C        C      0.563600000000     0.570800000000     0.436400000000     0.0309245  
C        C      0.602300000000     0.639300000000     0.408900000000     0.0309245  
C        C      0.550600000000     0.706300000000     0.423600000000     0.0309245  
C        C      0.589400000000     0.770600000000     0.401100000000     0.0309245  
C        C      0.678600000000     0.769100000000     0.363100000000     0.0309245  
C        C      0.728800000000     0.703100000000     0.347300000000     0.0309245  
C        C      0.690900000000     0.638500000000     0.370700000000     0.0309245  
C        C      0.827300000000     0.703700000000     0.306700000000     0.0309245  
C        C      0.536200000000     0.842300000000     0.418000000000     0.0309245  
C        C      0.144200000000     0.567700000000     0.468700000000     0.0309245  
C        C      0.184900000000     0.527800000000     0.425300000000     0.0309245  
C        C      0.102200000000     0.508000000000     0.387200000000     0.0309245  
C        C      0.980900000000     0.525400000000     0.393700000000     0.0309245  
C        C      0.939900000000     0.562200000000     0.436800000000     0.0309245  
C        C      0.023900000000     0.585000000000     0.474400000000     0.0309245  
C        C      0.125900000000     0.633400000000     0.540810000000     0.0309245  
C        C      0.150800000000     0.680900000000     0.587100000000     0.0309245  
C        C      0.096300000000     0.671300000000     0.635500000000     0.0309245  
C        C      0.226100000000     0.741600000000     0.581100000000     0.0309245  
C        C      0.240600000000     0.788500000000     0.622800000000     0.0309245  
C        C      0.180500000000     0.775500000000     0.669600000000     0.0309245  
C        C      0.903800000000     0.658800000000     0.540700000000     0.0309245  
C        C      0.897200000000     0.741100000000     0.529200000000     0.0309245  
C        C      0.563600000000     0.070800000000     0.063600000000     0.0309245  
C        C      0.602300000000     0.139300000000     0.091100000000     0.0309245  
C        C      0.550600000000     0.206300000000     0.076400000000     0.0309245  
C        C      0.589400000000     0.270600000000     0.098900000000     0.0309245  
C        C      0.678600000000     0.269100000000     0.136900000000     0.0309245  
C        C      0.728800000000     0.203100000000     0.152700000000     0.0309245  
C        C      0.690900000000     0.138500000000     0.129300000000     0.0309245  
C        C      0.827300000000     0.203700000000     0.193300000000     0.0309245  
C        C      0.536200000000     0.342300000000     0.082000000000     0.0309245  
C        C      0.144200000000     0.067700000000     0.031300000000     0.0309245  
C        C      0.184900000000     0.027800000000     0.074700000000     0.0309245  
C        C      0.102200000000     0.008000000000     0.112800000000     0.0309245  
C        C      0.980900000000     0.025400000000     0.106300000000     0.0309245  
C        C      0.939900000000     0.062200000000     0.063200000000     0.0309245  
C        C      0.023900000000     0.085000000000     0.025600000000     0.0309245  
C        C      0.125900000000     0.133400000000     0.959190000000     0.0309245  
C        C      0.150800000000     0.180900000000     0.912900000000     0.0309245  
C        C      0.096300000000     0.171300000000     0.864500000000     0.0309245  
C        C      0.226100000000     0.241600000000     0.918900000000     0.0309245  
C        C      0.240600000000     0.288500000000     0.877200000000     0.0309245  
C        C      0.180500000000     0.275500000000     0.830400000000     0.0309245  
C        C      0.903800000000     0.158800000000     0.959300000000     0.0309245  
C        C      0.897200000000     0.241100000000     0.970800000000     0.0309245  
C        C      0.436400000000     0.070800000000     0.436400000000     0.0309245  
C        C      0.397700000000     0.139300000000     0.408900000000     0.0309245  
C        C      0.449400000000     0.206300000000     0.423600000000     0.0309245  
C        C      0.410600000000     0.270600000000     0.401100000000     0.0309245  
C        C      0.321400000000     0.269100000000     0.363100000000     0.0309245  
C        C      0.271200000000     0.203100000000     0.347300000000     0.0309245  
C        C      0.309100000000     0.138500000000     0.370700000000     0.0309245  
C        C      0.172700000000     0.203700000000     0.306700000000     0.0309245  
C        C      0.463800000000     0.342300000000     0.418000000000     0.0309245  
C        C      0.855800000000     0.067700000000     0.468700000000     0.0309245  
C        C      0.815100000000     0.027800000000     0.425300000000     0.0309245  
C        C      0.897800000000     0.008000000000     0.387200000000     0.0309245  
C        C      0.019100000000     0.025400000000     0.393700000000     0.0309245  
C        C      0.060100000000     0.062200000000     0.436800000000     0.0309245  
C        C      0.976100000000     0.085000000000     0.474400000000     0.0309245  
C        C      0.874100000000     0.133400000000     0.540810000000     0.0309245  
C        C      0.849200000000     0.180900000000     0.587100000000     0.0309245  
C        C      0.903700000000     0.171300000000     0.635500000000     0.0309245  
C        C      0.773900000000     0.241600000000     0.581100000000     0.0309245  
C        C      0.759400000000     0.288500000000     0.622800000000     0.0309245  
C        C      0.819500000000     0.275500000000     0.669600000000     0.0309245  
C        C      0.096200000000     0.158800000000     0.540700000000     0.0309245  
C        C      0.102800000000     0.241100000000     0.529200000000     0.0309245  
C        C      0.563600000000     0.429200000000     0.936400000000     0.0309245  
C        C      0.602300000000     0.360700000000     0.908900000000     0.0309245  
C        C      0.550600000000     0.293700000000     0.923600000000     0.0309245  
C        C      0.589400000000     0.229400000000     0.901100000000     0.0309245  
C        C      0.678600000000     0.230900000000     0.863100000000     0.0309245  
C        C      0.728800000000     0.296900000000     0.847300000000     0.0309245  
C        C      0.690900000000     0.361500000000     0.870700000000     0.0309245  
C        C      0.827300000000     0.296300000000     0.806700000000     0.0309245  
C        C      0.536200000000     0.157700000000     0.918000000000     0.0309245  
C        C      0.144200000000     0.432300000000     0.968700000000     0.0309245  
C        C      0.184900000000     0.472200000000     0.925300000000     0.0309245  
C        C      0.102200000000     0.492000000000     0.887200000000     0.0309245  
C        C      0.980900000000     0.474600000000     0.893700000000     0.0309245  
C        C      0.939900000000     0.437800000000     0.936800000000     0.0309245  
C        C      0.023900000000     0.415000000000     0.974400000000     0.0309245  
C        C      0.125900000000     0.366600000000     0.040810000000     0.0309245  
C        C      0.150800000000     0.319100000000     0.087100000000     0.0309245  
C        C      0.096300000000     0.328700000000     0.135500000000     0.0309245  
C        C      0.226100000000     0.258400000000     0.081100000000     0.0309245  
C        C      0.240600000000     0.211500000000     0.122800000000     0.0309245  
C        C      0.180500000000     0.224500000000     0.169600000000     0.0309245  
C        C      0.903800000000     0.341200000000     0.040700000000     0.0309245  
C        C      0.897200000000     0.258900000000     0.029200000000     0.0309245  
C        C      0.436400000000     0.429200000000     0.563600000000     0.0309245  
C        C      0.397700000000     0.360700000000     0.591100000000     0.0309245  
C        C      0.449400000000     0.293700000000     0.576400000000     0.0309245  
C        C      0.410600000000     0.229400000000     0.598900000000     0.0309245  
C        C      0.321400000000     0.230900000000     0.636900000000     0.0309245  
C        C      0.271200000000     0.296900000000     0.652700000000     0.0309245  
C        C      0.309100000000     0.361500000000     0.629300000000     0.0309245  
C        C      0.172700000000     0.296300000000     0.693300000000     0.0309245  
C        C      0.463800000000     0.157700000000     0.582000000000     0.0309245  
C        C      0.855800000000     0.432300000000     0.531300000000     0.0309245  
C        C      0.815100000000     0.472200000000     0.574700000000     0.0309245  
C        C      0.897800000000     0.492000000000     0.612800000000     0.0309245  
C        C      0.019100000000     0.474600000000     0.606300000000     0.0309245  
C        C      0.060100000000     0.437800000000     0.563200000000     0.0309245  
C        C      0.976100000000     0.415000000000     0.525600000000     0.0309245  
C        C      0.874100000000     0.366600000000     0.459190000000     0.0309245  
C        C      0.849200000000     0.319100000000     0.412900000000     0.0309245  
C        C      0.903700000000     0.328700000000     0.364500000000     0.0309245  
C        C      0.773900000000     0.258400000000     0.418900000000     0.0309245  
C        C      0.759400000000     0.211500000000     0.377200000000     0.0309245  
C        C      0.819500000000     0.224500000000     0.330400000000     0.0309245  
C        C      0.096200000000     0.341200000000     0.459300000000     0.0309245  
C        C      0.102800000000     0.258900000000     0.470800000000     0.0309245  
N        N      0.793800000000     0.900980000000     0.010810000000    -0.149981   
N        N      0.985600000000     0.874600000000     0.020830000000    -0.149981   
N        N      0.889600000000     0.781800000000     0.176390000000    -0.149981   
N        N      0.206200000000     0.900980000000     0.489190000000    -0.149981   
N        N      0.014400000000     0.874600000000     0.479170000000    -0.149981   
N        N      0.110400000000     0.781800000000     0.323610000000    -0.149981   
N        N      0.793800000000     0.599020000000     0.989190000000    -0.149981   
N        N      0.985600000000     0.625400000000     0.979170000000    -0.149981   
N        N      0.889600000000     0.718200000000     0.823610000000    -0.149981   
N        N      0.206200000000     0.599020000000     0.510810000000    -0.149981   
N        N      0.014400000000     0.625400000000     0.520830000000    -0.149981   
N        N      0.110400000000     0.718200000000     0.676390000000    -0.149981   
N        N      0.206200000000     0.099020000000     0.989190000000    -0.149981   
N        N      0.014400000000     0.125400000000     0.979170000000    -0.149981   
N        N      0.110400000000     0.218200000000     0.823610000000    -0.149981   
N        N      0.793800000000     0.099020000000     0.510810000000    -0.149981   
N        N      0.985600000000     0.125400000000     0.520830000000    -0.149981   
N        N      0.889600000000     0.218200000000     0.676390000000    -0.149981   
N        N      0.206200000000     0.400980000000     0.010810000000    -0.149981   
N        N      0.014400000000     0.374600000000     0.020830000000    -0.149981   
N        N      0.110400000000     0.281800000000     0.176390000000    -0.149981   
N        N      0.793800000000     0.400980000000     0.489190000000    -0.149981   
N        N      0.985600000000     0.374600000000     0.479170000000    -0.149981   
N        N      0.889600000000     0.281800000000     0.323610000000    -0.149981   
O        O      0.538800000000     0.933250000000     0.955910000000    -0.292915   
O        O      0.360600000000     0.980330000000     0.938750000000    -0.292915   
O        O      0.137100000000     0.733000000000     0.793790000000    -0.292915   
O        O      0.135100000000     0.855000000000     0.788270000000    -0.292915   
O        O      0.420400000000     0.599200000000     0.903800000000    -0.292915   
O        O      0.552400000000     0.661960000000     0.947770000000    -0.292915   
O        O      0.461200000000     0.933250000000     0.544090000000    -0.292915   
O        O      0.639400000000     0.980330000000     0.561250000000    -0.292915   
O        O      0.862900000000     0.733000000000     0.706210000000    -0.292915   
O        O      0.864900000000     0.855000000000     0.711730000000    -0.292915   
O        O      0.579600000000     0.599200000000     0.596200000000    -0.292915   
O        O      0.447600000000     0.661960000000     0.552230000000    -0.292915   
O        O      0.538800000000     0.566750000000     0.044090000000    -0.292915   
O        O      0.360600000000     0.519670000000     0.061250000000    -0.292915   
O        O      0.137100000000     0.767000000000     0.206210000000    -0.292915   
O        O      0.135100000000     0.645000000000     0.211730000000    -0.292915   
O        O      0.420400000000     0.900800000000     0.096200000000    -0.292915   
O        O      0.552400000000     0.838040000000     0.052230000000    -0.292915   
O        O      0.461200000000     0.566750000000     0.455910000000    -0.292915   
O        O      0.639400000000     0.519670000000     0.438750000000    -0.292915   
O        O      0.862900000000     0.767000000000     0.293790000000    -0.292915   
O        O      0.864900000000     0.645000000000     0.288270000000    -0.292915   
O        O      0.579600000000     0.900800000000     0.403800000000    -0.292915   
O        O      0.447600000000     0.838040000000     0.447770000000    -0.292915   
O        O      0.461200000000     0.066750000000     0.044090000000    -0.292915   
O        O      0.639400000000     0.019670000000     0.061250000000    -0.292915   
O        O      0.862900000000     0.267000000000     0.206210000000    -0.292915   
O        O      0.864900000000     0.145000000000     0.211730000000    -0.292915   
O        O      0.579600000000     0.400800000000     0.096200000000    -0.292915   
O        O      0.447600000000     0.338040000000     0.052230000000    -0.292915   
O        O      0.538800000000     0.066750000000     0.455910000000    -0.292915   
O        O      0.360600000000     0.019670000000     0.438750000000    -0.292915   
O        O      0.137100000000     0.267000000000     0.293790000000    -0.292915   
O        O      0.135100000000     0.145000000000     0.288270000000    -0.292915   
O        O      0.420400000000     0.400800000000     0.403800000000    -0.292915   
O        O      0.552400000000     0.338040000000     0.447770000000    -0.292915   
O        O      0.461200000000     0.433250000000     0.955910000000    -0.292915   
O        O      0.639400000000     0.480330000000     0.938750000000    -0.292915   
O        O      0.862900000000     0.233000000000     0.793790000000    -0.292915   
O        O      0.864900000000     0.355000000000     0.788270000000    -0.292915   
O        O      0.579600000000     0.099200000000     0.903800000000    -0.292915   
O        O      0.447600000000     0.161960000000     0.947770000000    -0.292915   
O        O      0.538800000000     0.433250000000     0.544090000000    -0.292915   
O        O      0.360600000000     0.480330000000     0.561250000000    -0.292915   
O        O      0.137100000000     0.233000000000     0.706210000000    -0.292915   
O        O      0.135100000000     0.355000000000     0.711730000000    -0.292915   
O        O      0.420400000000     0.099200000000     0.596200000000    -0.292915   
O        O      0.552400000000     0.161960000000     0.552230000000    -0.292915   


