data_REYBAA_original

_audit_creation_method RASPA-1.0
_audit_creation_date 2022-1-29
_audit_author_name 'Felipe Lopes de Oliveira <felipe.lopes.oliveira@ibm.com>'

_cell_length_a    8.158
_cell_length_b    17.418
_cell_length_c    17.558
_cell_angle_alpha 90
_cell_angle_beta  98.28
_cell_angle_gamma 90
_cell_volume      2468.92

_symmetry_cell_setting          triclinic
_symmetry_space_group_name_Hall 'P 1'
_symmetry_space_group_name_H-M  'P 1'
_symmetry_Int_Tables_number     1

_symmetry_equiv_pos_as_xyz 'x,y,z'

loop_
_atom_site_label
_atom_site_type_symbol
_atom_site_fract_x
_atom_site_fract_y
_atom_site_fract_z
_atom_site_charge
Zn       Zn     0.754190000000     0.305830000000     0.751740000000     0.426534   
Zn       Zn     0.745810000000     0.805830000000     0.748260000000     0.426534   
Zn       Zn     0.245810000000     0.694170000000     0.248260000000     0.426534   
Zn       Zn     0.254190000000     0.194170000000     0.251740000000     0.426534   
H        H      0.050900000000     0.272100000000     0.974700000000     0.0694092  
H        H      0.494200000000     0.333500000000     0.086300000000     0.0694092  
H        H      0.349100000000     0.402800000000     0.868300000000     0.0694092  
H        H      0.674700000000     0.434600000000     0.078400000000     0.0694092  
H        H      0.751000000000     0.360200000000     0.047100000000     0.0694092  
H        H      0.005900000000     0.437700000000     0.115400000000     0.0694092  
H        H      0.768600000000     0.493200000000     0.908800000000     0.0694092  
H        H      0.414400000000     0.240200000000     0.694700000000     0.0694092  
H        H      0.200700000000     0.178800000000     0.738600000000     0.0694092  
H        H      0.482400000000     0.165700000000     0.945900000000     0.0694092  
H        H      0.684700000000     0.231200000000     0.896200000000     0.0694092  
H        H      0.730800000000     0.090400000000     0.782400000000     0.0694092  
H        H      0.627700000000     0.969800000000     0.747300000000     0.0694092  
H        H      0.065800000000     0.879900000000     0.788900000000     0.0694092  
H        H      0.182200000000     0.996200000000     0.827300000000     0.0694092  
H        H      0.449100000000     0.772100000000     0.525300000000     0.0694092  
H        H      0.005800000000     0.833500000000     0.413700000000     0.0694092  
H        H      0.150900000000     0.902800000000     0.631700000000     0.0694092  
H        H      0.825300000000     0.934600000000     0.421600000000     0.0694092  
H        H      0.749000000000     0.860200000000     0.452900000000     0.0694092  
H        H      0.494100000000     0.937700000000     0.384600000000     0.0694092  
H        H      0.731400000000     0.993200000000     0.591200000000     0.0694092  
H        H      0.085600000000     0.740200000000     0.805300000000     0.0694092  
H        H      0.299300000000     0.678800000000     0.761400000000     0.0694092  
H        H      0.017600000000     0.665700000000     0.554100000000     0.0694092  
H        H      0.815300000000     0.731200000000     0.603800000000     0.0694092  
H        H      0.769200000000     0.590400000000     0.717600000000     0.0694092  
H        H      0.872300000000     0.469800000000     0.752700000000     0.0694092  
H        H      0.434200000000     0.379900000000     0.711100000000     0.0694092  
H        H      0.317800000000     0.496200000000     0.672700000000     0.0694092  
H        H      0.949100000000     0.727900000000     0.025300000000     0.0694092  
H        H      0.505800000000     0.666500000000     0.913700000000     0.0694092  
H        H      0.650900000000     0.597200000000     0.131700000000     0.0694092  
H        H      0.325300000000     0.565400000000     0.921600000000     0.0694092  
H        H      0.249000000000     0.639800000000     0.952900000000     0.0694092  
H        H      0.994100000000     0.562300000000     0.884600000000     0.0694092  
H        H      0.231400000000     0.506800000000     0.091200000000     0.0694092  
H        H      0.585600000000     0.759800000000     0.305300000000     0.0694092  
H        H      0.799300000000     0.821200000000     0.261400000000     0.0694092  
H        H      0.517600000000     0.834300000000     0.054100000000     0.0694092  
H        H      0.315300000000     0.768800000000     0.103800000000     0.0694092  
H        H      0.269200000000     0.909600000000     0.217600000000     0.0694092  
H        H      0.372300000000     0.030200000000     0.252700000000     0.0694092  
H        H      0.934200000000     0.120100000000     0.211100000000     0.0694092  
H        H      0.817800000000     0.003800000000     0.172700000000     0.0694092  
H        H      0.550900000000     0.227900000000     0.474700000000     0.0694092  
H        H      0.994200000000     0.166500000000     0.586300000000     0.0694092  
H        H      0.849100000000     0.097200000000     0.368300000000     0.0694092  
H        H      0.174700000000     0.065400000000     0.578400000000     0.0694092  
H        H      0.251000000000     0.139800000000     0.547100000000     0.0694092  
H        H      0.505900000000     0.062300000000     0.615400000000     0.0694092  
H        H      0.268600000000     0.006800000000     0.408800000000     0.0694092  
H        H      0.914400000000     0.259800000000     0.194700000000     0.0694092  
H        H      0.700700000000     0.321200000000     0.238600000000     0.0694092  
H        H      0.982400000000     0.334300000000     0.445900000000     0.0694092  
H        H      0.184700000000     0.268800000000     0.396200000000     0.0694092  
H        H      0.230800000000     0.409600000000     0.282400000000     0.0694092  
H        H      0.127700000000     0.530200000000     0.247300000000     0.0694092  
H        H      0.565800000000     0.620100000000     0.288900000000     0.0694092  
H        H      0.682200000000     0.503800000000     0.327300000000     0.0694092  
C        C      0.057000000000     0.338600000000     0.839600000000     0.0168149  
C        C      0.180800000000     0.337200000000     0.911500000000     0.0168149  
C        C      0.150900000000     0.297800000000     0.975200000000     0.0168149  
C        C      0.268300000000     0.295600000000     0.040400000000     0.0168149  
C        C      0.231200000000     0.252800000000     0.110800000000     0.0168149  
C        C      0.416200000000     0.333900000000     0.042100000000     0.0168149  
C        C      0.447300000000     0.373200000000     0.976800000000     0.0168149  
C        C      0.328900000000     0.375600000000     0.911500000000     0.0168149  
C        C      0.716500000000     0.412400000000     0.034300000000     0.0168149  
C        C      0.862800000000     0.458700000000     0.015800000000     0.0168149  
C        C      0.002500000000     0.463100000000     0.068500000000     0.0168149  
C        C      0.861800000000     0.496000000000     0.946000000000     0.0168149  
C        C      0.426700000000     0.226000000000     0.746200000000     0.0168149  
C        C      0.297700000000     0.188700000000     0.771900000000     0.0168149  
C        C      0.313500000000     0.165800000000     0.848600000000     0.0168149  
C        C      0.464600000000     0.181500000000     0.894800000000     0.0168149  
C        C      0.586300000000     0.220300000000     0.864300000000     0.0168149  
C        C      0.971400000000     0.057000000000     0.811300000000     0.0168149  
C        C      0.801600000000     0.048300000000     0.785400000000     0.0168149  
C        C      0.740500000000     0.975100000000     0.764000000000     0.0168149  
C        C      0.997600000000     0.922700000000     0.788800000000     0.0168149  
C        C      0.068600000000     0.992700000000     0.811700000000     0.0168149  
C        C      0.443000000000     0.838600000000     0.660400000000     0.0168149  
C        C      0.319200000000     0.837200000000     0.588500000000     0.0168149  
C        C      0.349100000000     0.797800000000     0.524800000000     0.0168149  
C        C      0.231700000000     0.795600000000     0.459600000000     0.0168149  
C        C      0.268800000000     0.752800000000     0.389200000000     0.0168149  
C        C      0.083800000000     0.833900000000     0.457900000000     0.0168149  
C        C      0.052700000000     0.873200000000     0.523200000000     0.0168149  
C        C      0.171100000000     0.875600000000     0.588500000000     0.0168149  
C        C      0.783500000000     0.912400000000     0.465700000000     0.0168149  
C        C      0.637200000000     0.958700000000     0.484200000000     0.0168149  
C        C      0.497500000000     0.963100000000     0.431500000000     0.0168149  
C        C      0.638200000000     0.996000000000     0.554000000000     0.0168149  
C        C      0.073300000000     0.726000000000     0.753800000000     0.0168149  
C        C      0.202300000000     0.688700000000     0.728100000000     0.0168149  
C        C      0.186500000000     0.665800000000     0.651400000000     0.0168149  
C        C      0.035400000000     0.681500000000     0.605200000000     0.0168149  
C        C      0.913700000000     0.720300000000     0.635700000000     0.0168149  
C        C      0.528600000000     0.557000000000     0.688700000000     0.0168149  
C        C      0.698400000000     0.548300000000     0.714600000000     0.0168149  
C        C      0.759500000000     0.475100000000     0.736000000000     0.0168149  
C        C      0.502400000000     0.422700000000     0.711200000000     0.0168149  
C        C      0.431400000000     0.492700000000     0.688300000000     0.0168149  
C        C      0.943000000000     0.661400000000     0.160400000000     0.0168149  
C        C      0.819200000000     0.662800000000     0.088500000000     0.0168149  
C        C      0.849100000000     0.702200000000     0.024800000000     0.0168149  
C        C      0.731700000000     0.704400000000     0.959600000000     0.0168149  
C        C      0.768800000000     0.747200000000     0.889200000000     0.0168149  
C        C      0.583800000000     0.666100000000     0.957900000000     0.0168149  
C        C      0.552700000000     0.626800000000     0.023200000000     0.0168149  
C        C      0.671100000000     0.624400000000     0.088500000000     0.0168149  
C        C      0.283500000000     0.587600000000     0.965700000000     0.0168149  
C        C      0.137200000000     0.541300000000     0.984200000000     0.0168149  
C        C      0.997500000000     0.536900000000     0.931500000000     0.0168149  
C        C      0.138200000000     0.504000000000     0.054000000000     0.0168149  
C        C      0.573300000000     0.774000000000     0.253800000000     0.0168149  
C        C      0.702300000000     0.811300000000     0.228100000000     0.0168149  
C        C      0.686500000000     0.834200000000     0.151400000000     0.0168149  
C        C      0.535400000000     0.818500000000     0.105200000000     0.0168149  
C        C      0.413700000000     0.779700000000     0.135700000000     0.0168149  
C        C      0.028600000000     0.943000000000     0.188700000000     0.0168149  
C        C      0.198400000000     0.951700000000     0.214600000000     0.0168149  
C        C      0.259500000000     0.024900000000     0.236000000000     0.0168149  
C        C      0.002400000000     0.077300000000     0.211200000000     0.0168149  
C        C      0.931400000000     0.007300000000     0.188300000000     0.0168149  
C        C      0.557000000000     0.161400000000     0.339600000000     0.0168149  
C        C      0.680800000000     0.162800000000     0.411500000000     0.0168149  
C        C      0.650900000000     0.202200000000     0.475200000000     0.0168149  
C        C      0.768300000000     0.204400000000     0.540400000000     0.0168149  
C        C      0.731200000000     0.247200000000     0.610800000000     0.0168149  
C        C      0.916200000000     0.166100000000     0.542100000000     0.0168149  
C        C      0.947300000000     0.126800000000     0.476800000000     0.0168149  
C        C      0.828900000000     0.124400000000     0.411500000000     0.0168149  
C        C      0.216500000000     0.087600000000     0.534300000000     0.0168149  
C        C      0.362800000000     0.041300000000     0.515800000000     0.0168149  
C        C      0.502500000000     0.036900000000     0.568500000000     0.0168149  
C        C      0.361800000000     0.004000000000     0.446000000000     0.0168149  
C        C      0.926700000000     0.274000000000     0.246200000000     0.0168149  
C        C      0.797700000000     0.311300000000     0.271900000000     0.0168149  
C        C      0.813500000000     0.334200000000     0.348600000000     0.0168149  
C        C      0.964600000000     0.318500000000     0.394800000000     0.0168149  
C        C      0.086300000000     0.279700000000     0.364300000000     0.0168149  
C        C      0.471400000000     0.443000000000     0.311300000000     0.0168149  
C        C      0.301600000000     0.451700000000     0.285400000000     0.0168149  
C        C      0.240500000000     0.524900000000     0.264000000000     0.0168149  
C        C      0.497600000000     0.577300000000     0.288800000000     0.0168149  
C        C      0.568600000000     0.507300000000     0.311700000000     0.0168149  
N        N      0.570300000000     0.243400000000     0.790600000000    -0.144065   
N        N      0.189600000000     0.129300000000     0.879300000000    -0.144065   
N        N      0.032900000000     0.126800000000     0.836700000000    -0.144065   
N        N      0.832800000000     0.914100000000     0.766400000000    -0.144065   
N        N      0.929700000000     0.743400000000     0.709400000000    -0.144065   
N        N      0.310400000000     0.629300000000     0.620700000000    -0.144065   
N        N      0.467100000000     0.626800000000     0.663300000000    -0.144065   
N        N      0.667200000000     0.414100000000     0.733600000000    -0.144065   
N        N      0.429700000000     0.756600000000     0.209400000000    -0.144065   
N        N      0.810400000000     0.870700000000     0.120700000000    -0.144065   
N        N      0.967100000000     0.873200000000     0.163300000000    -0.144065   
N        N      0.167200000000     0.085900000000     0.233600000000    -0.144065   
N        N      0.070300000000     0.256600000000     0.290600000000    -0.144065   
N        N      0.689600000000     0.370700000000     0.379300000000    -0.144065   
N        N      0.532900000000     0.373200000000     0.336700000000    -0.144065   
N        N      0.332800000000     0.585900000000     0.266400000000    -0.144065   
O        O      0.926700000000     0.296000000000     0.840700000000    -0.252268   
O        O      0.080300000000     0.377600000000     0.783700000000    -0.252268   
O        O      0.096100000000     0.218900000000     0.109800000000    -0.252268   
O        O      0.339700000000     0.253200000000     0.169900000000    -0.252268   
O        O      0.590500000000     0.412300000000     0.970300000000    -0.252268   
O        O      0.573300000000     0.796000000000     0.659300000000    -0.252268   
O        O      0.419700000000     0.877600000000     0.716300000000    -0.252268   
O        O      0.403900000000     0.718900000000     0.390200000000    -0.252268   
O        O      0.160300000000     0.753200000000     0.330100000000    -0.252268   
O        O      0.909500000000     0.912300000000     0.529700000000    -0.252268   
O        O      0.073300000000     0.704000000000     0.159300000000    -0.252268   
O        O      0.919700000000     0.622400000000     0.216300000000    -0.252268   
O        O      0.903900000000     0.781100000000     0.890200000000    -0.252268   
O        O      0.660300000000     0.746800000000     0.830100000000    -0.252268   
O        O      0.409500000000     0.587700000000     0.029700000000    -0.252268   
O        O      0.426700000000     0.204000000000     0.340700000000    -0.252268   
O        O      0.580300000000     0.122400000000     0.283700000000    -0.252268   
O        O      0.596100000000     0.281100000000     0.609800000000    -0.252268   
O        O      0.839700000000     0.246800000000     0.669900000000    -0.252268   
O        O      0.090500000000     0.087700000000     0.470300000000    -0.252268   


