data_REYNUG_original

_audit_creation_method RASPA-1.0
_audit_creation_date 2022-1-29
_audit_author_name 'Felipe Lopes de Oliveira <felipe.lopes.oliveira@ibm.com>'

_cell_length_a    6.9741
_cell_length_b    21.79
_cell_length_c    21.79
_cell_angle_alpha 90
_cell_angle_beta  90
_cell_angle_gamma 90
_cell_volume      3311.33

_symmetry_cell_setting          triclinic
_symmetry_space_group_name_Hall 'P 1'
_symmetry_space_group_name_H-M  'P 1'
_symmetry_Int_Tables_number     1

_symmetry_equiv_pos_as_xyz 'x,y,z'

loop_
_atom_site_label
_atom_site_type_symbol
_atom_site_fract_x
_atom_site_fract_y
_atom_site_fract_z
_atom_site_charge
Zn       Zn     0.064220000000     0.118630000000     0.139204000000     0.411965   
Zn       Zn     0.564220000000     0.381370000000     0.860796000000     0.411965   
Zn       Zn     0.314220000000     0.610796000000     0.368630000000     0.411965   
Zn       Zn     0.814220000000     0.889204000000     0.631370000000     0.411965   
Zn       Zn     0.564220000000     0.618630000000     0.639204000000     0.411965   
Zn       Zn     0.064220000000     0.881370000000     0.360796000000     0.411965   
Zn       Zn     0.814220000000     0.110796000000     0.868630000000     0.411965   
Zn       Zn     0.314220000000     0.389204000000     0.131370000000     0.411965   
Zn       Zn     0.935780000000     0.881370000000     0.860796000000     0.411965   
Zn       Zn     0.435780000000     0.618630000000     0.139204000000     0.411965   
Zn       Zn     0.685780000000     0.389204000000     0.631370000000     0.411965   
Zn       Zn     0.185780000000     0.110796000000     0.368630000000     0.411965   
Zn       Zn     0.435780000000     0.381370000000     0.360796000000     0.411965   
Zn       Zn     0.935780000000     0.118630000000     0.639204000000     0.411965   
Zn       Zn     0.185780000000     0.889204000000     0.131370000000     0.411965   
Zn       Zn     0.685780000000     0.610796000000     0.868630000000     0.411965   
H        H      0.418200000000     0.122300000000     0.110100000000     0.103326   
H        H      0.918200000000     0.377700000000     0.889900000000     0.103326   
H        H      0.668200000000     0.639900000000     0.372300000000     0.103326   
H        H      0.168200000000     0.860100000000     0.627700000000     0.103326   
H        H      0.918200000000     0.622300000000     0.610100000000     0.103326   
H        H      0.418200000000     0.877700000000     0.389900000000     0.103326   
H        H      0.168200000000     0.139900000000     0.872300000000     0.103326   
H        H      0.668200000000     0.360100000000     0.127700000000     0.103326   
H        H      0.581800000000     0.877700000000     0.889900000000     0.103326   
H        H      0.081800000000     0.622300000000     0.110100000000     0.103326   
H        H      0.331800000000     0.360100000000     0.627700000000     0.103326   
H        H      0.831800000000     0.139900000000     0.372300000000     0.103326   
H        H      0.081800000000     0.377700000000     0.389900000000     0.103326   
H        H      0.581800000000     0.122300000000     0.610100000000     0.103326   
H        H      0.831800000000     0.860100000000     0.127700000000     0.103326   
H        H      0.331800000000     0.639900000000     0.872300000000     0.103326   
H        H      0.417500000000     0.062100000000     0.219700000000     0.103326   
H        H      0.917500000000     0.437900000000     0.780300000000     0.103326   
H        H      0.667500000000     0.530300000000     0.312100000000     0.103326   
H        H      0.167500000000     0.969700000000     0.687900000000     0.103326   
H        H      0.917500000000     0.562100000000     0.719700000000     0.103326   
H        H      0.417500000000     0.937900000000     0.280300000000     0.103326   
H        H      0.167500000000     0.030300000000     0.812100000000     0.103326   
H        H      0.667500000000     0.469700000000     0.187900000000     0.103326   
H        H      0.582500000000     0.937900000000     0.780300000000     0.103326   
H        H      0.082500000000     0.562100000000     0.219700000000     0.103326   
H        H      0.332500000000     0.469700000000     0.687900000000     0.103326   
H        H      0.832500000000     0.030300000000     0.312100000000     0.103326   
H        H      0.082500000000     0.437900000000     0.280300000000     0.103326   
H        H      0.582500000000     0.062100000000     0.719700000000     0.103326   
H        H      0.832500000000     0.969700000000     0.187900000000     0.103326   
H        H      0.332500000000     0.530300000000     0.812100000000     0.103326   
H        H      0.561700000000     0.052700000000     0.165200000000     0.103326   
H        H      0.061700000000     0.447300000000     0.834800000000     0.103326   
H        H      0.811700000000     0.584800000000     0.302700000000     0.103326   
H        H      0.311700000000     0.915200000000     0.697300000000     0.103326   
H        H      0.061700000000     0.552700000000     0.665200000000     0.103326   
H        H      0.561700000000     0.947300000000     0.334800000000     0.103326   
H        H      0.311700000000     0.084800000000     0.802700000000     0.103326   
H        H      0.811700000000     0.415200000000     0.197300000000     0.103326   
H        H      0.438300000000     0.947300000000     0.834800000000     0.103326   
H        H      0.938300000000     0.552700000000     0.165200000000     0.103326   
H        H      0.188300000000     0.415200000000     0.697300000000     0.103326   
H        H      0.688300000000     0.084800000000     0.302700000000     0.103326   
H        H      0.938300000000     0.447300000000     0.334800000000     0.103326   
H        H      0.438300000000     0.052700000000     0.665200000000     0.103326   
H        H      0.688300000000     0.915200000000     0.197300000000     0.103326   
H        H      0.188300000000     0.584800000000     0.802700000000     0.103326   
H        H      0.489800000000     0.264900000000     0.173200000000     0.103326   
H        H      0.989800000000     0.235100000000     0.826800000000     0.103326   
H        H      0.739800000000     0.576800000000     0.514900000000     0.103326   
H        H      0.239800000000     0.923200000000     0.485100000000     0.103326   
H        H      0.989800000000     0.764900000000     0.673200000000     0.103326   
H        H      0.489800000000     0.735100000000     0.326800000000     0.103326   
H        H      0.239800000000     0.076800000000     0.014900000000     0.103326   
H        H      0.739800000000     0.423200000000     0.985100000000     0.103326   
H        H      0.510200000000     0.735100000000     0.826800000000     0.103326   
H        H      0.010200000000     0.764900000000     0.173200000000     0.103326   
H        H      0.260200000000     0.423200000000     0.485100000000     0.103326   
H        H      0.760200000000     0.076800000000     0.514900000000     0.103326   
H        H      0.010200000000     0.235100000000     0.326800000000     0.103326   
H        H      0.510200000000     0.264900000000     0.673200000000     0.103326   
H        H      0.760200000000     0.923200000000     0.985100000000     0.103326   
H        H      0.260200000000     0.576800000000     0.014900000000     0.103326   
H        H      0.477700000000     0.230000000000     0.110500000000     0.103326   
H        H      0.977700000000     0.270000000000     0.889500000000     0.103326   
H        H      0.727700000000     0.639500000000     0.480000000000     0.103326   
H        H      0.227700000000     0.860500000000     0.520000000000     0.103326   
H        H      0.977700000000     0.730000000000     0.610500000000     0.103326   
H        H      0.477700000000     0.770000000000     0.389500000000     0.103326   
H        H      0.227700000000     0.139500000000     0.980000000000     0.103326   
H        H      0.727700000000     0.360500000000     0.020000000000     0.103326   
H        H      0.522300000000     0.770000000000     0.889500000000     0.103326   
H        H      0.022300000000     0.730000000000     0.110500000000     0.103326   
H        H      0.272300000000     0.360500000000     0.520000000000     0.103326   
H        H      0.772300000000     0.139500000000     0.480000000000     0.103326   
H        H      0.022300000000     0.270000000000     0.389500000000     0.103326   
H        H      0.522300000000     0.230000000000     0.610500000000     0.103326   
H        H      0.772300000000     0.860500000000     0.020000000000     0.103326   
H        H      0.272300000000     0.639500000000     0.980000000000     0.103326   
H        H      0.587400000000     0.165400000000     0.190300000000     0.103326   
H        H      0.087400000000     0.334600000000     0.809700000000     0.103326   
H        H      0.837400000000     0.559700000000     0.415400000000     0.103326   
H        H      0.337400000000     0.940300000000     0.584600000000     0.103326   
H        H      0.087400000000     0.665400000000     0.690300000000     0.103326   
H        H      0.587400000000     0.834600000000     0.309700000000     0.103326   
H        H      0.337400000000     0.059700000000     0.915400000000     0.103326   
H        H      0.837400000000     0.440300000000     0.084600000000     0.103326   
H        H      0.412600000000     0.834600000000     0.809700000000     0.103326   
H        H      0.912600000000     0.665400000000     0.190300000000     0.103326   
H        H      0.162600000000     0.440300000000     0.584600000000     0.103326   
H        H      0.662600000000     0.059700000000     0.415400000000     0.103326   
H        H      0.912600000000     0.334600000000     0.309700000000     0.103326   
H        H      0.412600000000     0.165400000000     0.690300000000     0.103326   
H        H      0.662600000000     0.940300000000     0.084600000000     0.103326   
H        H      0.162600000000     0.559700000000     0.915400000000     0.103326   
H        H      0.391000000000     0.174200000000     0.224400000000     0.103326   
H        H      0.891000000000     0.325800000000     0.775600000000     0.103326   
H        H      0.641000000000     0.525600000000     0.424200000000     0.103326   
H        H      0.141000000000     0.974400000000     0.575800000000     0.103326   
H        H      0.891000000000     0.674200000000     0.724400000000     0.103326   
H        H      0.391000000000     0.825800000000     0.275600000000     0.103326   
H        H      0.141000000000     0.025600000000     0.924200000000     0.103326   
H        H      0.641000000000     0.474400000000     0.075800000000     0.103326   
H        H      0.609000000000     0.825800000000     0.775600000000     0.103326   
H        H      0.109000000000     0.674200000000     0.224400000000     0.103326   
H        H      0.359000000000     0.474400000000     0.575800000000     0.103326   
H        H      0.859000000000     0.025600000000     0.424200000000     0.103326   
H        H      0.109000000000     0.325800000000     0.275600000000     0.103326   
H        H      0.609000000000     0.174200000000     0.724400000000     0.103326   
H        H      0.859000000000     0.974400000000     0.075800000000     0.103326   
H        H      0.359000000000     0.525600000000     0.924200000000     0.103326   
C        C      0.304200000000     0.009170000000     0.150600000000     0.005677   
C        C      0.804200000000     0.490830000000     0.849400000000     0.005677   
C        C      0.554200000000     0.599400000000     0.259170000000     0.005677   
C        C      0.054200000000     0.900600000000     0.740830000000     0.005677   
C        C      0.804200000000     0.509170000000     0.650600000000     0.005677   
C        C      0.304200000000     0.990830000000     0.349400000000     0.005677   
C        C      0.054200000000     0.099400000000     0.759170000000     0.005677   
C        C      0.554200000000     0.400600000000     0.240830000000     0.005677   
C        C      0.695800000000     0.990830000000     0.849400000000     0.005677   
C        C      0.195800000000     0.509170000000     0.150600000000     0.005677   
C        C      0.445800000000     0.400600000000     0.740830000000     0.005677   
C        C      0.945800000000     0.099400000000     0.259170000000     0.005677   
C        C      0.195800000000     0.490830000000     0.349400000000     0.005677   
C        C      0.695800000000     0.009170000000     0.650600000000     0.005677   
C        C      0.945800000000     0.900600000000     0.240830000000     0.005677   
C        C      0.445800000000     0.599400000000     0.759170000000     0.005677   
C        C      0.215400000000     0.252080000000     0.144570000000     0.005677   
C        C      0.715400000000     0.247920000000     0.855430000000     0.005677   
C        C      0.465400000000     0.605430000000     0.502080000000     0.005677   
C        C      0.965400000000     0.894570000000     0.497920000000     0.005677   
C        C      0.715400000000     0.752080000000     0.644570000000     0.005677   
C        C      0.215400000000     0.747920000000     0.355430000000     0.005677   
C        C      0.965400000000     0.105430000000     0.002080000000     0.005677   
C        C      0.465400000000     0.394570000000     0.997920000000     0.005677   
C        C      0.784600000000     0.747920000000     0.855430000000     0.005677   
C        C      0.284600000000     0.752080000000     0.144570000000     0.005677   
C        C      0.534600000000     0.394570000000     0.497920000000     0.005677   
C        C      0.034600000000     0.105430000000     0.502080000000     0.005677   
C        C      0.284600000000     0.247920000000     0.355430000000     0.005677   
C        C      0.784600000000     0.252080000000     0.644570000000     0.005677   
C        C      0.034600000000     0.894570000000     0.997920000000     0.005677   
C        C      0.534600000000     0.605430000000     0.002080000000     0.005677   
C        C      0.428600000000     0.060510000000     0.175380000000     0.005677   
C        C      0.928600000000     0.439490000000     0.824620000000     0.005677   
C        C      0.678600000000     0.574620000000     0.310510000000     0.005677   
C        C      0.178600000000     0.925380000000     0.689490000000     0.005677   
C        C      0.928600000000     0.560510000000     0.675380000000     0.005677   
C        C      0.428600000000     0.939490000000     0.324620000000     0.005677   
C        C      0.178600000000     0.074620000000     0.810510000000     0.005677   
C        C      0.678600000000     0.425380000000     0.189490000000     0.005677   
C        C      0.571400000000     0.939490000000     0.824620000000     0.005677   
C        C      0.071400000000     0.560510000000     0.175380000000     0.005677   
C        C      0.321400000000     0.425380000000     0.689490000000     0.005677   
C        C      0.821400000000     0.074620000000     0.310510000000     0.005677   
C        C      0.071400000000     0.439490000000     0.324620000000     0.005677   
C        C      0.571400000000     0.060510000000     0.675380000000     0.005677   
C        C      0.821400000000     0.925380000000     0.189490000000     0.005677   
C        C      0.321400000000     0.574620000000     0.810510000000     0.005677   
C        C      0.421400000000     0.233010000000     0.151100000000     0.005677   
C        C      0.921400000000     0.266990000000     0.848900000000     0.005677   
C        C      0.671400000000     0.598900000000     0.483010000000     0.005677   
C        C      0.171400000000     0.901100000000     0.516990000000     0.005677   
C        C      0.921400000000     0.733010000000     0.651100000000     0.005677   
C        C      0.421400000000     0.766990000000     0.348900000000     0.005677   
C        C      0.171400000000     0.098900000000     0.983010000000     0.005677   
C        C      0.671400000000     0.401100000000     0.016990000000     0.005677   
C        C      0.578600000000     0.766990000000     0.848900000000     0.005677   
C        C      0.078600000000     0.733010000000     0.151100000000     0.005677   
C        C      0.328600000000     0.401100000000     0.516990000000     0.005677   
C        C      0.828600000000     0.098900000000     0.483010000000     0.005677   
C        C      0.078600000000     0.266990000000     0.348900000000     0.005677   
C        C      0.578600000000     0.233010000000     0.651100000000     0.005677   
C        C      0.828600000000     0.901100000000     0.016990000000     0.005677   
C        C      0.328600000000     0.598900000000     0.983010000000     0.005677   
C        C      0.451300000000     0.172310000000     0.184360000000     0.005677   
C        C      0.951300000000     0.327690000000     0.815640000000     0.005677   
C        C      0.701300000000     0.565640000000     0.422310000000     0.005677   
C        C      0.201300000000     0.934360000000     0.577690000000     0.005677   
C        C      0.951300000000     0.672310000000     0.684360000000     0.005677   
C        C      0.451300000000     0.827690000000     0.315640000000     0.005677   
C        C      0.201300000000     0.065640000000     0.922310000000     0.005677   
C        C      0.701300000000     0.434360000000     0.077690000000     0.005677   
C        C      0.548700000000     0.827690000000     0.815640000000     0.005677   
C        C      0.048700000000     0.672310000000     0.184360000000     0.005677   
C        C      0.298700000000     0.434360000000     0.577690000000     0.005677   
C        C      0.798700000000     0.065640000000     0.422310000000     0.005677   
C        C      0.048700000000     0.327690000000     0.315640000000     0.005677   
C        C      0.548700000000     0.172310000000     0.684360000000     0.005677   
C        C      0.798700000000     0.934360000000     0.077690000000     0.005677   
C        C      0.298700000000     0.565640000000     0.922310000000     0.005677   
N        N      0.157600000000     0.309830000000     0.138670000000    -0.107331   
N        N      0.657600000000     0.190170000000     0.861330000000    -0.107331   
N        N      0.407600000000     0.611330000000     0.559830000000    -0.107331   
N        N      0.907600000000     0.888670000000     0.440170000000    -0.107331   
N        N      0.657600000000     0.809830000000     0.638670000000    -0.107331   
N        N      0.157600000000     0.690170000000     0.361330000000    -0.107331   
N        N      0.907600000000     0.111330000000     0.059830000000    -0.107331   
N        N      0.407600000000     0.388670000000     0.940170000000    -0.107331   
N        N      0.842400000000     0.690170000000     0.861330000000    -0.107331   
N        N      0.342400000000     0.809830000000     0.138670000000    -0.107331   
N        N      0.592400000000     0.388670000000     0.440170000000    -0.107331   
N        N      0.092400000000     0.111330000000     0.559830000000    -0.107331   
N        N      0.342400000000     0.190170000000     0.361330000000    -0.107331   
N        N      0.842400000000     0.309830000000     0.638670000000    -0.107331   
N        N      0.092400000000     0.888670000000     0.940170000000    -0.107331   
N        N      0.592400000000     0.611330000000     0.059830000000    -0.107331   
N        N      0.368000000000     0.120270000000     0.148640000000    -0.107331   
N        N      0.868000000000     0.379730000000     0.851360000000    -0.107331   
N        N      0.618000000000     0.601360000000     0.370270000000    -0.107331   
N        N      0.118000000000     0.898640000000     0.629730000000    -0.107331   
N        N      0.868000000000     0.620270000000     0.648640000000    -0.107331   
N        N      0.368000000000     0.879730000000     0.351360000000    -0.107331   
N        N      0.118000000000     0.101360000000     0.870270000000    -0.107331   
N        N      0.618000000000     0.398640000000     0.129730000000    -0.107331   
N        N      0.632000000000     0.879730000000     0.851360000000    -0.107331   
N        N      0.132000000000     0.620270000000     0.148640000000    -0.107331   
N        N      0.382000000000     0.398640000000     0.629730000000    -0.107331   
N        N      0.882000000000     0.101360000000     0.370270000000    -0.107331   
N        N      0.132000000000     0.379730000000     0.351360000000    -0.107331   
N        N      0.632000000000     0.120270000000     0.648640000000    -0.107331   
N        N      0.882000000000     0.898640000000     0.129730000000    -0.107331   
N        N      0.382000000000     0.601360000000     0.870270000000    -0.107331   
N        N      0.065300000000     0.214290000000     0.143880000000    -0.107331   
N        N      0.565300000000     0.285710000000     0.856120000000    -0.107331   
N        N      0.315300000000     0.606120000000     0.464290000000    -0.107331   
N        N      0.815300000000     0.893880000000     0.535710000000    -0.107331   
N        N      0.565300000000     0.714290000000     0.643880000000    -0.107331   
N        N      0.065300000000     0.785710000000     0.356120000000    -0.107331   
N        N      0.815300000000     0.106120000000     0.964290000000    -0.107331   
N        N      0.315300000000     0.393880000000     0.035710000000    -0.107331   
N        N      0.934700000000     0.785710000000     0.856120000000    -0.107331   
N        N      0.434700000000     0.714290000000     0.143880000000    -0.107331   
N        N      0.684700000000     0.393880000000     0.535710000000    -0.107331   
N        N      0.184700000000     0.106120000000     0.464290000000    -0.107331   
N        N      0.434700000000     0.285710000000     0.356120000000    -0.107331   
N        N      0.934700000000     0.214290000000     0.643880000000    -0.107331   
N        N      0.184700000000     0.893880000000     0.035710000000    -0.107331   
N        N      0.684700000000     0.606120000000     0.964290000000    -0.107331   
N        N      0.908500000000     0.250420000000     0.137870000000    -0.107331   
N        N      0.408500000000     0.249580000000     0.862130000000    -0.107331   
N        N      0.158500000000     0.612130000000     0.500420000000    -0.107331   
N        N      0.658500000000     0.887870000000     0.499580000000    -0.107331   
N        N      0.408500000000     0.750420000000     0.637870000000    -0.107331   
N        N      0.908500000000     0.749580000000     0.362130000000    -0.107331   
N        N      0.658500000000     0.112130000000     0.000420000000    -0.107331   
N        N      0.158500000000     0.387870000000     0.999580000000    -0.107331   
N        N      0.091500000000     0.749580000000     0.862130000000    -0.107331   
N        N      0.591500000000     0.750420000000     0.137870000000    -0.107331   
N        N      0.841500000000     0.387870000000     0.499580000000    -0.107331   
N        N      0.341500000000     0.112130000000     0.500420000000    -0.107331   
N        N      0.591500000000     0.249580000000     0.362130000000    -0.107331   
N        N      0.091500000000     0.250420000000     0.637870000000    -0.107331   
N        N      0.341500000000     0.887870000000     0.999580000000    -0.107331   
N        N      0.841500000000     0.612130000000     0.000420000000    -0.107331   
N        N      0.962500000000     0.307530000000     0.134490000000    -0.107331   
N        N      0.462500000000     0.192470000000     0.865510000000    -0.107331   
N        N      0.212500000000     0.615510000000     0.557530000000    -0.107331   
N        N      0.712500000000     0.884490000000     0.442470000000    -0.107331   
N        N      0.462500000000     0.807530000000     0.634490000000    -0.107331   
N        N      0.962500000000     0.692470000000     0.365510000000    -0.107331   
N        N      0.712500000000     0.115510000000     0.057530000000    -0.107331   
N        N      0.212500000000     0.384490000000     0.942470000000    -0.107331   
N        N      0.037500000000     0.692470000000     0.865510000000    -0.107331   
N        N      0.537500000000     0.807530000000     0.134490000000    -0.107331   
N        N      0.787500000000     0.384490000000     0.442470000000    -0.107331   
N        N      0.287500000000     0.115510000000     0.557530000000    -0.107331   
N        N      0.537500000000     0.192470000000     0.365510000000    -0.107331   
N        N      0.037500000000     0.307530000000     0.634490000000    -0.107331   
N        N      0.287500000000     0.884490000000     0.942470000000    -0.107331   
N        N      0.787500000000     0.615510000000     0.057530000000    -0.107331   
O        O      0.364900000000     0.955590000000     0.157290000000    -0.313487   
O        O      0.864900000000     0.544410000000     0.842710000000    -0.313487   
O        O      0.614900000000     0.592710000000     0.205590000000    -0.313487   
O        O      0.114900000000     0.907290000000     0.794410000000    -0.313487   
O        O      0.864900000000     0.455590000000     0.657290000000    -0.313487   
O        O      0.364900000000     0.044410000000     0.342710000000    -0.313487   
O        O      0.114900000000     0.092710000000     0.705590000000    -0.313487   
O        O      0.614900000000     0.407290000000     0.294410000000    -0.313487   
O        O      0.635100000000     0.044410000000     0.842710000000    -0.313487   
O        O      0.135100000000     0.455590000000     0.157290000000    -0.313487   
O        O      0.385100000000     0.407290000000     0.794410000000    -0.313487   
O        O      0.885100000000     0.092710000000     0.205590000000    -0.313487   
O        O      0.135100000000     0.544410000000     0.342710000000    -0.313487   
O        O      0.635100000000     0.955590000000     0.657290000000    -0.313487   
O        O      0.885100000000     0.907290000000     0.294410000000    -0.313487   
O        O      0.385100000000     0.592710000000     0.705590000000    -0.313487   
O        O      0.147000000000     0.022360000000     0.126940000000    -0.313487   
O        O      0.647000000000     0.477640000000     0.873060000000    -0.313487   
O        O      0.397000000000     0.623060000000     0.272360000000    -0.313487   
O        O      0.897000000000     0.876940000000     0.727640000000    -0.313487   
O        O      0.647000000000     0.522360000000     0.626940000000    -0.313487   
O        O      0.147000000000     0.977640000000     0.373060000000    -0.313487   
O        O      0.897000000000     0.123060000000     0.772360000000    -0.313487   
O        O      0.397000000000     0.376940000000     0.227640000000    -0.313487   
O        O      0.853000000000     0.977640000000     0.873060000000    -0.313487   
O        O      0.353000000000     0.522360000000     0.126940000000    -0.313487   
O        O      0.603000000000     0.376940000000     0.727640000000    -0.313487   
O        O      0.103000000000     0.123060000000     0.272360000000    -0.313487   
O        O      0.353000000000     0.477640000000     0.373060000000    -0.313487   
O        O      0.853000000000     0.022360000000     0.626940000000    -0.313487   
O        O      0.103000000000     0.876940000000     0.227640000000    -0.313487   
O        O      0.603000000000     0.623060000000     0.772360000000    -0.313487   


