data_RIFDUG01_original

_audit_creation_method RASPA-1.0
_audit_creation_date 2022-1-28
_audit_author_name 'Felipe Lopes de Oliveira <felipe.lopes.oliveira@ibm.com>'

_cell_length_a    18.7666
_cell_length_b    18.7666
_cell_length_c    18.7666
_cell_angle_alpha 60
_cell_angle_beta  60
_cell_angle_gamma 60
_cell_volume      4673.5

_symmetry_cell_setting          triclinic
_symmetry_space_group_name_Hall 'P 1'
_symmetry_space_group_name_H-M  'P 1'
_symmetry_Int_Tables_number     1

_symmetry_equiv_pos_as_xyz 'x,y,z'

loop_
_atom_site_label
_atom_site_type_symbol
_atom_site_fract_x
_atom_site_fract_y
_atom_site_fract_z
_atom_site_charge
Zn       Zn     0.500000000000     0.079160000000     0.500000000000     0.460969   
Zn       Zn     0.079160000000     0.500000000000     0.920840000000     0.460969   
Zn       Zn     0.500000000000     0.920840000000     0.500000000000     0.460969   
Zn       Zn     0.920840000000     0.500000000000     0.079160000000     0.460969   
Zn       Zn     0.500000000000     0.500000000000     0.920840000000     0.460969   
Zn       Zn     0.079160000000     0.920840000000     0.500000000000     0.460969   
Zn       Zn     0.500000000000     0.500000000000     0.079160000000     0.460969   
Zn       Zn     0.920840000000     0.079160000000     0.500000000000     0.460969   
Zn       Zn     0.500000000000     0.920840000000     0.079160000000     0.460969   
Zn       Zn     0.079160000000     0.500000000000     0.500000000000     0.460969   
Zn       Zn     0.500000000000     0.079160000000     0.920840000000     0.460969   
Zn       Zn     0.920840000000     0.500000000000     0.500000000000     0.460969   
H        H      0.770700000000     0.987500000000     0.471100000000     0.0554341  
H        H      0.987500000000     0.770700000000     0.770700000000     0.0554341  
H        H      0.471100000000     0.770700000000     0.770700000000     0.0554341  
H        H      0.770700000000     0.471100000000     0.987500000000     0.0554341  
H        H      0.770700000000     0.471100000000     0.770700000000     0.0554341  
H        H      0.987500000000     0.770700000000     0.471100000000     0.0554341  
H        H      0.471100000000     0.770700000000     0.987500000000     0.0554341  
H        H      0.770700000000     0.987500000000     0.770700000000     0.0554341  
H        H      0.770700000000     0.770700000000     0.987500000000     0.0554341  
H        H      0.987500000000     0.471100000000     0.770700000000     0.0554341  
H        H      0.471100000000     0.987500000000     0.770700000000     0.0554341  
H        H      0.770700000000     0.770700000000     0.471100000000     0.0554341  
H        H      0.012500000000     0.229300000000     0.528900000000     0.0554341  
H        H      0.229300000000     0.012500000000     0.229300000000     0.0554341  
H        H      0.229300000000     0.528900000000     0.229300000000     0.0554341  
H        H      0.528900000000     0.229300000000     0.012500000000     0.0554341  
H        H      0.528900000000     0.229300000000     0.229300000000     0.0554341  
H        H      0.229300000000     0.012500000000     0.528900000000     0.0554341  
H        H      0.229300000000     0.528900000000     0.012500000000     0.0554341  
H        H      0.012500000000     0.229300000000     0.229300000000     0.0554341  
H        H      0.229300000000     0.229300000000     0.012500000000     0.0554341  
H        H      0.528900000000     0.012500000000     0.229300000000     0.0554341  
H        H      0.012500000000     0.528900000000     0.229300000000     0.0554341  
H        H      0.229300000000     0.229300000000     0.528900000000     0.0554341  
C        C      0.663720000000     0.930200000000     0.475880000000     0.0975638  
C        C      0.756340000000     0.885700000000     0.472260000000     0.0975638  
C        C      0.930200000000     0.663720000000     0.930200000000     0.0975638  
C        C      0.885700000000     0.756340000000     0.885700000000     0.0975638  
C        C      0.475880000000     0.930200000000     0.663720000000     0.0975638  
C        C      0.472260000000     0.885700000000     0.756340000000     0.0975638  
C        C      0.930200000000     0.475880000000     0.930200000000     0.0975638  
C        C      0.885700000000     0.472260000000     0.885700000000     0.0975638  
C        C      0.663720000000     0.475880000000     0.930200000000     0.0975638  
C        C      0.756340000000     0.472260000000     0.885700000000     0.0975638  
C        C      0.930200000000     0.930200000000     0.475880000000     0.0975638  
C        C      0.885700000000     0.885700000000     0.472260000000     0.0975638  
C        C      0.475880000000     0.663720000000     0.930200000000     0.0975638  
C        C      0.472260000000     0.756340000000     0.885700000000     0.0975638  
C        C      0.930200000000     0.930200000000     0.663720000000     0.0975638  
C        C      0.885700000000     0.885700000000     0.756340000000     0.0975638  
C        C      0.663720000000     0.930200000000     0.930200000000     0.0975638  
C        C      0.756340000000     0.885700000000     0.885700000000     0.0975638  
C        C      0.930200000000     0.475880000000     0.663720000000     0.0975638  
C        C      0.885700000000     0.472260000000     0.756340000000     0.0975638  
C        C      0.475880000000     0.930200000000     0.930200000000     0.0975638  
C        C      0.472260000000     0.885700000000     0.885700000000     0.0975638  
C        C      0.930200000000     0.663720000000     0.475880000000     0.0975638  
C        C      0.885700000000     0.756340000000     0.472260000000     0.0975638  
C        C      0.069800000000     0.336280000000     0.524120000000     0.0975638  
C        C      0.114300000000     0.243660000000     0.527740000000     0.0975638  
C        C      0.336280000000     0.069800000000     0.069800000000     0.0975638  
C        C      0.243660000000     0.114300000000     0.114300000000     0.0975638  
C        C      0.069800000000     0.524120000000     0.336280000000     0.0975638  
C        C      0.114300000000     0.527740000000     0.243660000000     0.0975638  
C        C      0.524120000000     0.069800000000     0.069800000000     0.0975638  
C        C      0.527740000000     0.114300000000     0.114300000000     0.0975638  
C        C      0.524120000000     0.336280000000     0.069800000000     0.0975638  
C        C      0.527740000000     0.243660000000     0.114300000000     0.0975638  
C        C      0.069800000000     0.069800000000     0.524120000000     0.0975638  
C        C      0.114300000000     0.114300000000     0.527740000000     0.0975638  
C        C      0.336280000000     0.524120000000     0.069800000000     0.0975638  
C        C      0.243660000000     0.527740000000     0.114300000000     0.0975638  
C        C      0.069800000000     0.069800000000     0.336280000000     0.0975638  
C        C      0.114300000000     0.114300000000     0.243660000000     0.0975638  
C        C      0.069800000000     0.336280000000     0.069800000000     0.0975638  
C        C      0.114300000000     0.243660000000     0.114300000000     0.0975638  
C        C      0.524120000000     0.069800000000     0.336280000000     0.0975638  
C        C      0.527740000000     0.114300000000     0.243660000000     0.0975638  
C        C      0.069800000000     0.524120000000     0.069800000000     0.0975638  
C        C      0.114300000000     0.527740000000     0.114300000000     0.0975638  
C        C      0.336280000000     0.069800000000     0.524120000000     0.0975638  
C        C      0.243660000000     0.114300000000     0.527740000000     0.0975638  
C        C      0.799700000000     0.928780000000     0.471820000000     0.0975638  
C        C      0.928780000000     0.799700000000     0.799700000000     0.0975638  
C        C      0.471820000000     0.799700000000     0.799700000000     0.0975638  
C        C      0.799700000000     0.471820000000     0.928780000000     0.0975638  
C        C      0.799700000000     0.471820000000     0.799700000000     0.0975638  
C        C      0.928780000000     0.799700000000     0.471820000000     0.0975638  
C        C      0.471820000000     0.799700000000     0.928780000000     0.0975638  
C        C      0.799700000000     0.928780000000     0.799700000000     0.0975638  
C        C      0.799700000000     0.799700000000     0.928780000000     0.0975638  
C        C      0.928780000000     0.471820000000     0.799700000000     0.0975638  
C        C      0.471820000000     0.928780000000     0.799700000000     0.0975638  
C        C      0.799700000000     0.799700000000     0.471820000000     0.0975638  
C        C      0.071220000000     0.200300000000     0.528180000000     0.0975638  
C        C      0.200300000000     0.071220000000     0.200300000000     0.0975638  
C        C      0.200300000000     0.528180000000     0.200300000000     0.0975638  
C        C      0.528180000000     0.200300000000     0.071220000000     0.0975638  
C        C      0.528180000000     0.200300000000     0.200300000000     0.0975638  
C        C      0.200300000000     0.071220000000     0.528180000000     0.0975638  
C        C      0.200300000000     0.528180000000     0.071220000000     0.0975638  
C        C      0.071220000000     0.200300000000     0.200300000000     0.0975638  
C        C      0.200300000000     0.200300000000     0.071220000000     0.0975638  
C        C      0.528180000000     0.071220000000     0.200300000000     0.0975638  
C        C      0.071220000000     0.528180000000     0.200300000000     0.0975638  
C        C      0.200300000000     0.200300000000     0.528180000000     0.0975638  
O        O      0.627950000000     0.006390000000     0.478410000000    -0.289305   
O        O      0.006390000000     0.627950000000     0.887250000000    -0.289305   
O        O      0.478410000000     0.887250000000     0.627950000000    -0.289305   
O        O      0.887250000000     0.478410000000     0.006390000000    -0.289305   
O        O      0.627950000000     0.478410000000     0.887250000000    -0.289305   
O        O      0.006390000000     0.887250000000     0.478410000000    -0.289305   
O        O      0.478410000000     0.627950000000     0.006390000000    -0.289305   
O        O      0.887250000000     0.006390000000     0.627950000000    -0.289305   
O        O      0.627950000000     0.887250000000     0.006390000000    -0.289305   
O        O      0.006390000000     0.478410000000     0.627950000000    -0.289305   
O        O      0.478410000000     0.006390000000     0.887250000000    -0.289305   
O        O      0.887250000000     0.627950000000     0.478410000000    -0.289305   
O        O      0.993610000000     0.372050000000     0.521590000000    -0.289305   
O        O      0.372050000000     0.993610000000     0.112750000000    -0.289305   
O        O      0.112750000000     0.521590000000     0.372050000000    -0.289305   
O        O      0.521590000000     0.112750000000     0.993610000000    -0.289305   
O        O      0.521590000000     0.372050000000     0.112750000000    -0.289305   
O        O      0.112750000000     0.993610000000     0.521590000000    -0.289305   
O        O      0.372050000000     0.521590000000     0.993610000000    -0.289305   
O        O      0.993610000000     0.112750000000     0.372050000000    -0.289305   
O        O      0.112750000000     0.372050000000     0.993610000000    -0.289305   
O        O      0.521590000000     0.993610000000     0.372050000000    -0.289305   
O        O      0.993610000000     0.521590000000     0.112750000000    -0.289305   
O        O      0.372050000000     0.112750000000     0.521590000000    -0.289305   
O        O      0.372050000000     0.993610000000     0.521590000000    -0.289305   
O        O      0.993610000000     0.372050000000     0.112750000000    -0.289305   
O        O      0.521590000000     0.112750000000     0.372050000000    -0.289305   
O        O      0.112750000000     0.521590000000     0.993610000000    -0.289305   
O        O      0.372050000000     0.521590000000     0.112750000000    -0.289305   
O        O      0.993610000000     0.112750000000     0.521590000000    -0.289305   
O        O      0.521590000000     0.372050000000     0.993610000000    -0.289305   
O        O      0.112750000000     0.993610000000     0.372050000000    -0.289305   
O        O      0.372050000000     0.112750000000     0.993610000000    -0.289305   
O        O      0.993610000000     0.521590000000     0.372050000000    -0.289305   
O        O      0.521590000000     0.993610000000     0.112750000000    -0.289305   
O        O      0.112750000000     0.372050000000     0.521590000000    -0.289305   
O        O      0.006390000000     0.627950000000     0.478410000000    -0.289305   
O        O      0.627950000000     0.006390000000     0.887250000000    -0.289305   
O        O      0.887250000000     0.478410000000     0.627950000000    -0.289305   
O        O      0.478410000000     0.887250000000     0.006390000000    -0.289305   
O        O      0.478410000000     0.627950000000     0.887250000000    -0.289305   
O        O      0.887250000000     0.006390000000     0.478410000000    -0.289305   
O        O      0.627950000000     0.478410000000     0.006390000000    -0.289305   
O        O      0.006390000000     0.887250000000     0.627950000000    -0.289305   
O        O      0.887250000000     0.627950000000     0.006390000000    -0.289305   
O        O      0.478410000000     0.006390000000     0.627950000000    -0.289305   
O        O      0.006390000000     0.478410000000     0.887250000000    -0.289305   
O        O      0.627950000000     0.887250000000     0.478410000000    -0.289305   


