data_RIPNIP_original

_audit_creation_method RASPA-1.0
_audit_creation_date 2022-1-30
_audit_author_name 'Felipe Lopes de Oliveira <felipe.lopes.oliveira@ibm.com>'

_cell_length_a    11.9339
_cell_length_b    12.4369
_cell_length_c    17.9627
_cell_angle_alpha 90
_cell_angle_beta  104.051
_cell_angle_gamma 90
_cell_volume      2586.27

_symmetry_cell_setting          triclinic
_symmetry_space_group_name_Hall 'P 1'
_symmetry_space_group_name_H-M  'P 1'
_symmetry_Int_Tables_number     1

_symmetry_equiv_pos_as_xyz 'x,y,z'

loop_
_atom_site_label
_atom_site_type_symbol
_atom_site_fract_x
_atom_site_fract_y
_atom_site_fract_z
_atom_site_charge
Zn       Zn     0.046090000000     0.741660000000     0.768260000000     0.552908   
Zn       Zn     0.256400000000     0.937050000000     0.778740000000     0.552908   
Zn       Zn     0.453910000000     0.241660000000     0.731740000000     0.552908   
Zn       Zn     0.243600000000     0.437050000000     0.721260000000     0.552908   
Zn       Zn     0.953910000000     0.258340000000     0.231740000000     0.552908   
Zn       Zn     0.743600000000     0.062950000000     0.221260000000     0.552908   
Zn       Zn     0.546090000000     0.758340000000     0.268260000000     0.552908   
Zn       Zn     0.756400000000     0.562950000000     0.278740000000     0.552908   
C        C      0.352700000000     0.691900000000     0.951300000000     0.216775   
C        C      0.316200000000     0.669100000000     0.017600000000     0.216775   
C        C      0.391900000000     0.632800000000     0.082900000000     0.216775   
C        C      0.506700000000     0.612800000000     0.085500000000     0.216775   
C        C      0.540700000000     0.630200000000     0.019100000000     0.216775   
C        C      0.469300000000     0.671800000000     0.954400000000     0.216775   
C        C      0.275200000000     0.742600000000     0.881900000000     0.216775   
C        C      0.596700000000     0.583900000000     0.157600000000     0.216775   
C        C      0.446400000000     0.094100000000     0.845900000000     0.216775   
C        C      0.473600000000     0.045000000000     0.925800000000     0.216775   
C        C      0.559100000000     0.967700000000     0.947200000000     0.216775   
C        C      0.584300000000     0.924700000000     0.020600000000     0.216775   
C        C      0.059400000000     0.945200000000     0.855000000000     0.216775   
C        C      0.029300000000     0.974600000000     0.930100000000     0.216775   
C        C      0.919600000000     0.011900000000     0.932400000000     0.216775   
C        C      0.892300000000     0.037100000000     0.999400000000     0.216775   
C        C      0.147300000000     0.191900000000     0.548700000000     0.216775   
C        C      0.183800000000     0.169100000000     0.482400000000     0.216775   
C        C      0.108100000000     0.132800000000     0.417100000000     0.216775   
C        C      0.993300000000     0.112800000000     0.414500000000     0.216775   
C        C      0.959300000000     0.130200000000     0.480900000000     0.216775   
C        C      0.030700000000     0.171800000000     0.545600000000     0.216775   
C        C      0.224800000000     0.242600000000     0.618100000000     0.216775   
C        C      0.903300000000     0.083900000000     0.342400000000     0.216775   
C        C      0.053600000000     0.594100000000     0.654100000000     0.216775   
C        C      0.026400000000     0.545000000000     0.574200000000     0.216775   
C        C      0.940900000000     0.467700000000     0.552800000000     0.216775   
C        C      0.915700000000     0.424700000000     0.479400000000     0.216775   
C        C      0.440600000000     0.445200000000     0.645000000000     0.216775   
C        C      0.470700000000     0.474600000000     0.569900000000     0.216775   
C        C      0.580400000000     0.511900000000     0.567600000000     0.216775   
C        C      0.607700000000     0.537100000000     0.500600000000     0.216775   
C        C      0.647300000000     0.308100000000     0.048700000000     0.216775   
C        C      0.683800000000     0.330900000000     0.982400000000     0.216775   
C        C      0.608100000000     0.367200000000     0.917100000000     0.216775   
C        C      0.493300000000     0.387200000000     0.914500000000     0.216775   
C        C      0.459300000000     0.369800000000     0.980900000000     0.216775   
C        C      0.530700000000     0.328200000000     0.045600000000     0.216775   
C        C      0.724800000000     0.257400000000     0.118100000000     0.216775   
C        C      0.403300000000     0.416100000000     0.842400000000     0.216775   
C        C      0.553600000000     0.905900000000     0.154100000000     0.216775   
C        C      0.526400000000     0.955000000000     0.074200000000     0.216775   
C        C      0.440900000000     0.032300000000     0.052800000000     0.216775   
C        C      0.415700000000     0.075300000000     0.979400000000     0.216775   
C        C      0.940600000000     0.054800000000     0.145000000000     0.216775   
C        C      0.970700000000     0.025400000000     0.069900000000     0.216775   
C        C      0.080400000000     0.988100000000     0.067600000000     0.216775   
C        C      0.107700000000     0.962900000000     0.000600000000     0.216775   
C        C      0.852700000000     0.808100000000     0.451300000000     0.216775   
C        C      0.816200000000     0.830900000000     0.517600000000     0.216775   
C        C      0.891900000000     0.867200000000     0.582900000000     0.216775   
C        C      0.006700000000     0.887200000000     0.585500000000     0.216775   
C        C      0.040700000000     0.869800000000     0.519100000000     0.216775   
C        C      0.969300000000     0.828200000000     0.454400000000     0.216775   
C        C      0.775200000000     0.757400000000     0.381900000000     0.216775   
C        C      0.096700000000     0.916100000000     0.657600000000     0.216775   
C        C      0.946400000000     0.405900000000     0.345900000000     0.216775   
C        C      0.973600000000     0.455000000000     0.425800000000     0.216775   
C        C      0.059100000000     0.532300000000     0.447200000000     0.216775   
C        C      0.084300000000     0.575300000000     0.520600000000     0.216775   
C        C      0.559400000000     0.554800000000     0.355000000000     0.216775   
C        C      0.529300000000     0.525400000000     0.430100000000     0.216775   
C        C      0.419600000000     0.488100000000     0.432400000000     0.216775   
C        C      0.392300000000     0.462900000000     0.499400000000     0.216775   
O        O      0.319200000000     0.822600000000     0.856400000000    -0.240729   
O        O      0.176700000000     0.702800000000     0.856000000000    -0.240729   
O        O      0.641600000000     0.494200000000     0.165700000000    -0.240729   
O        O      0.628400000000     0.659600000000     0.206500000000    -0.240729   
O        O      0.354600000000     0.069000000000     0.798500000000    -0.240729   
O        O      0.517100000000     0.159500000000     0.831000000000    -0.240729   
O        O      0.146500000000     0.989700000000     0.843100000000    -0.240729   
O        O      0.995200000000     0.876300000000     0.816400000000    -0.240729   
O        O      0.180800000000     0.322600000000     0.643600000000    -0.240729   
O        O      0.323300000000     0.202800000000     0.644000000000    -0.240729   
O        O      0.858400000000     0.994200000000     0.334300000000    -0.240729   
O        O      0.871600000000     0.159600000000     0.293500000000    -0.240729   
O        O      0.145400000000     0.569000000000     0.701500000000    -0.240729   
O        O      0.982900000000     0.659500000000     0.669000000000    -0.240729   
O        O      0.353500000000     0.489700000000     0.656900000000    -0.240729   
O        O      0.504800000000     0.376300000000     0.683600000000    -0.240729   
O        O      0.680800000000     0.177400000000     0.143600000000    -0.240729   
O        O      0.823300000000     0.297200000000     0.144000000000    -0.240729   
O        O      0.358400000000     0.505800000000     0.834300000000    -0.240729   
O        O      0.371600000000     0.340400000000     0.793500000000    -0.240729   
O        O      0.645400000000     0.931000000000     0.201500000000    -0.240729   
O        O      0.482900000000     0.840500000000     0.169000000000    -0.240729   
O        O      0.853500000000     0.010300000000     0.156900000000    -0.240729   
O        O      0.004800000000     0.123700000000     0.183600000000    -0.240729   
O        O      0.819200000000     0.677400000000     0.356400000000    -0.240729   
O        O      0.676700000000     0.797200000000     0.356000000000    -0.240729   
O        O      0.141600000000     0.005800000000     0.665700000000    -0.240729   
O        O      0.128400000000     0.840400000000     0.706500000000    -0.240729   
O        O      0.854600000000     0.431000000000     0.298500000000    -0.240729   
O        O      0.017100000000     0.340500000000     0.331000000000    -0.240729   
O        O      0.646500000000     0.510300000000     0.343100000000    -0.240729   
O        O      0.495200000000     0.623700000000     0.316400000000    -0.240729   
F        F      0.205400000000     0.686800000000     0.019300000000    -0.331047   
F        F      0.353200000000     0.620300000000     0.147470000000    -0.331047   
F        F      0.652400000000     0.610700000000     0.017600000000    -0.331047   
F        F      0.511000000000     0.691600000000     0.893000000000    -0.331047   
F        F      0.617100000000     0.932700000000     0.896440000000    -0.331047   
F        F      0.668200000000     0.849100000000     0.038500000000    -0.331047   
F        F      0.840000000000     0.028300000000     0.865700000000    -0.331047   
F        F      0.786300000000     0.077000000000     0.997600000000    -0.331047   
F        F      0.294600000000     0.186800000000     0.480700000000    -0.331047   
F        F      0.146800000000     0.120300000000     0.352530000000    -0.331047   
F        F      0.847600000000     0.110700000000     0.482400000000    -0.331047   
F        F      0.989000000000     0.191600000000     0.607000000000    -0.331047   
F        F      0.882900000000     0.432700000000     0.603560000000    -0.331047   
F        F      0.831800000000     0.349100000000     0.461500000000    -0.331047   
F        F      0.660000000000     0.528300000000     0.634300000000    -0.331047   
F        F      0.713700000000     0.577000000000     0.502400000000    -0.331047   
F        F      0.794600000000     0.313200000000     0.980700000000    -0.331047   
F        F      0.646800000000     0.379700000000     0.852530000000    -0.331047   
F        F      0.347600000000     0.389300000000     0.982400000000    -0.331047   
F        F      0.489000000000     0.308400000000     0.107000000000    -0.331047   
F        F      0.382900000000     0.067300000000     0.103560000000    -0.331047   
F        F      0.331800000000     0.150900000000     0.961500000000    -0.331047   
F        F      0.160000000000     0.971700000000     0.134300000000    -0.331047   
F        F      0.213700000000     0.923000000000     0.002400000000    -0.331047   
F        F      0.705400000000     0.813200000000     0.519300000000    -0.331047   
F        F      0.853200000000     0.879700000000     0.647470000000    -0.331047   
F        F      0.152400000000     0.889300000000     0.517600000000    -0.331047   
F        F      0.011000000000     0.808400000000     0.393000000000    -0.331047   
F        F      0.117100000000     0.567300000000     0.396440000000    -0.331047   
F        F      0.168200000000     0.650900000000     0.538500000000    -0.331047   
F        F      0.340000000000     0.471700000000     0.365700000000    -0.331047   
F        F      0.286300000000     0.423000000000     0.497600000000    -0.331047   


