data_RIYDEJ_original

_audit_creation_method RASPA-1.0
_audit_creation_date 2022-1-30
_audit_author_name 'Felipe Lopes de Oliveira <felipe.lopes.oliveira@ibm.com>'

_cell_length_a    10.4821
_cell_length_b    10.4821
_cell_length_c    13.9283
_cell_angle_alpha 90
_cell_angle_beta  90
_cell_angle_gamma 90
_cell_volume      1530.36

_symmetry_cell_setting          triclinic
_symmetry_space_group_name_Hall 'P 1'
_symmetry_space_group_name_H-M  'P 1'
_symmetry_Int_Tables_number     1

_symmetry_equiv_pos_as_xyz 'x,y,z'

loop_
_atom_site_label
_atom_site_type_symbol
_atom_site_fract_x
_atom_site_fract_y
_atom_site_fract_z
_atom_site_charge
Na       Na     0.597000000000     0.597000000000     0.000000000000     3.45089    
Na       Na     0.403000000000     0.403000000000     0.500000000000     3.45089    
Na       Na     0.903000000000     0.097000000000     0.750000000000     3.45089    
Na       Na     0.097000000000     0.903000000000     0.250000000000     3.45089    
H        H      0.552700000000     0.643800000000     0.768800000000     0.0287703  
H        H      0.693200000000     0.948900000000     0.641900000000     0.0287703  
H        H      0.585900000000     0.886700000000     0.499200000000     0.0287703  
H        H      0.472300000000     0.698700000000     0.493300000000     0.0287703  
H        H      0.447300000000     0.356200000000     0.268800000000     0.0287703  
H        H      0.306800000000     0.051100000000     0.141900000000     0.0287703  
H        H      0.414100000000     0.113300000000     0.999200000000     0.0287703  
H        H      0.527700000000     0.301300000000     0.993300000000     0.0287703  
H        H      0.856200000000     0.052700000000     0.518800000000     0.0287703  
H        H      0.551100000000     0.193200000000     0.391900000000     0.0287703  
H        H      0.613300000000     0.085900000000     0.249200000000     0.0287703  
H        H      0.801300000000     0.972300000000     0.243300000000     0.0287703  
H        H      0.143800000000     0.947300000000     0.018800000000     0.0287703  
H        H      0.448900000000     0.806800000000     0.891900000000     0.0287703  
H        H      0.386700000000     0.914100000000     0.749200000000     0.0287703  
H        H      0.198700000000     0.027700000000     0.743300000000     0.0287703  
H        H      0.947300000000     0.143800000000     0.981200000000     0.0287703  
H        H      0.806800000000     0.448900000000     0.108100000000     0.0287703  
H        H      0.914100000000     0.386700000000     0.250800000000     0.0287703  
H        H      0.027700000000     0.198700000000     0.256700000000     0.0287703  
H        H      0.052700000000     0.856200000000     0.481200000000     0.0287703  
H        H      0.193200000000     0.551100000000     0.608100000000     0.0287703  
H        H      0.085900000000     0.613300000000     0.750800000000     0.0287703  
H        H      0.972300000000     0.801300000000     0.756700000000     0.0287703  
H        H      0.643800000000     0.552700000000     0.231200000000     0.0287703  
H        H      0.948900000000     0.693200000000     0.358100000000     0.0287703  
H        H      0.886700000000     0.585900000000     0.500800000000     0.0287703  
H        H      0.698700000000     0.472300000000     0.506700000000     0.0287703  
H        H      0.356200000000     0.447300000000     0.731200000000     0.0287703  
H        H      0.051100000000     0.306800000000     0.858100000000     0.0287703  
H        H      0.113300000000     0.414100000000     0.000800000000     0.0287703  
H        H      0.301300000000     0.527700000000     0.006700000000     0.0287703  
C        C      0.699600000000     0.824900000000     0.814000000000     0.099671   
C        C      0.633600000000     0.797000000000     0.718900000000     0.099671   
C        C      0.644700000000     0.872400000000     0.640000000000     0.099671   
C        C      0.581700000000     0.833800000000     0.554500000000     0.099671   
C        C      0.515300000000     0.722000000000     0.550700000000     0.099671   
C        C      0.510000000000     0.638900000000     0.633100000000     0.099671   
C        C      0.300400000000     0.175100000000     0.314000000000     0.099671   
C        C      0.366400000000     0.203000000000     0.218900000000     0.099671   
C        C      0.355300000000     0.127600000000     0.140000000000     0.099671   
C        C      0.418300000000     0.166200000000     0.054500000000     0.099671   
C        C      0.484700000000     0.278000000000     0.050700000000     0.099671   
C        C      0.490000000000     0.361100000000     0.133100000000     0.099671   
C        C      0.675100000000     0.199600000000     0.564000000000     0.099671   
C        C      0.703000000000     0.133600000000     0.468900000000     0.099671   
C        C      0.627600000000     0.144700000000     0.390000000000     0.099671   
C        C      0.666200000000     0.081700000000     0.304500000000     0.099671   
C        C      0.778000000000     0.015300000000     0.300700000000     0.099671   
C        C      0.861100000000     0.010000000000     0.383100000000     0.099671   
C        C      0.324900000000     0.800400000000     0.064000000000     0.099671   
C        C      0.297000000000     0.866400000000     0.968900000000     0.099671   
C        C      0.372400000000     0.855300000000     0.890000000000     0.099671   
C        C      0.333800000000     0.918300000000     0.804500000000     0.099671   
C        C      0.222000000000     0.984700000000     0.800700000000     0.099671   
C        C      0.138900000000     0.990000000000     0.883100000000     0.099671   
C        C      0.800400000000     0.324900000000     0.936000000000     0.099671   
C        C      0.866400000000     0.297000000000     0.031100000000     0.099671   
C        C      0.855300000000     0.372400000000     0.110000000000     0.099671   
C        C      0.918300000000     0.333800000000     0.195500000000     0.099671   
C        C      0.984700000000     0.222000000000     0.199300000000     0.099671   
C        C      0.990000000000     0.138900000000     0.116900000000     0.099671   
C        C      0.199600000000     0.675100000000     0.436000000000     0.099671   
C        C      0.133600000000     0.703000000000     0.531100000000     0.099671   
C        C      0.144700000000     0.627600000000     0.610000000000     0.099671   
C        C      0.081700000000     0.666200000000     0.695500000000     0.099671   
C        C      0.015300000000     0.778000000000     0.699300000000     0.099671   
C        C      0.010000000000     0.861100000000     0.616900000000     0.099671   
C        C      0.824900000000     0.699600000000     0.186000000000     0.099671   
C        C      0.797000000000     0.633600000000     0.281100000000     0.099671   
C        C      0.872400000000     0.644700000000     0.360000000000     0.099671   
C        C      0.833800000000     0.581700000000     0.445500000000     0.099671   
C        C      0.722000000000     0.515300000000     0.449300000000     0.099671   
C        C      0.638900000000     0.510000000000     0.366900000000     0.099671   
C        C      0.175100000000     0.300400000000     0.686000000000     0.099671   
C        C      0.203000000000     0.366400000000     0.781100000000     0.099671   
C        C      0.127600000000     0.355300000000     0.860000000000     0.099671   
C        C      0.166200000000     0.418300000000     0.945500000000     0.099671   
C        C      0.278000000000     0.484700000000     0.949300000000     0.099671   
C        C      0.361100000000     0.490000000000     0.866900000000     0.099671   
N        N      0.563800000000     0.686700000000     0.715100000000    -0.239983   
N        N      0.436200000000     0.313300000000     0.215100000000    -0.239983   
N        N      0.813300000000     0.063800000000     0.465100000000    -0.239983   
N        N      0.186700000000     0.936200000000     0.965100000000    -0.239983   
N        N      0.936200000000     0.186700000000     0.034900000000    -0.239983   
N        N      0.063800000000     0.813300000000     0.534900000000    -0.239983   
N        N      0.686700000000     0.563800000000     0.284900000000    -0.239983   
N        N      0.313300000000     0.436200000000     0.784900000000    -0.239983   
O        O      0.680400000000     0.747600000000     0.881800000000    -0.732857   
O        O      0.772400000000     0.919800000000     0.815800000000    -0.732857   
O        O      0.463400000000     0.528800000000     0.632400000000    -0.732857   
O        O      0.319600000000     0.252400000000     0.381800000000    -0.732857   
O        O      0.227600000000     0.080200000000     0.315800000000    -0.732857   
O        O      0.536600000000     0.471200000000     0.132400000000    -0.732857   
O        O      0.752400000000     0.180400000000     0.631800000000    -0.732857   
O        O      0.580200000000     0.272400000000     0.565800000000    -0.732857   
O        O      0.971200000000     0.963400000000     0.382400000000    -0.732857   
O        O      0.247600000000     0.819600000000     0.131800000000    -0.732857   
O        O      0.419800000000     0.727600000000     0.065800000000    -0.732857   
O        O      0.028800000000     0.036600000000     0.882400000000    -0.732857   
O        O      0.819600000000     0.247600000000     0.868200000000    -0.732857   
O        O      0.727600000000     0.419800000000     0.934200000000    -0.732857   
O        O      0.036600000000     0.028800000000     0.117600000000    -0.732857   
O        O      0.180400000000     0.752400000000     0.368200000000    -0.732857   
O        O      0.272400000000     0.580200000000     0.434200000000    -0.732857   
O        O      0.963400000000     0.971200000000     0.617600000000    -0.732857   
O        O      0.747600000000     0.680400000000     0.118200000000    -0.732857   
O        O      0.919800000000     0.772400000000     0.184200000000    -0.732857   
O        O      0.528800000000     0.463400000000     0.367600000000    -0.732857   
O        O      0.252400000000     0.319600000000     0.618200000000    -0.732857   
O        O      0.080200000000     0.227600000000     0.684200000000    -0.732857   
O        O      0.471200000000     0.536600000000     0.867600000000    -0.732857   


