data_RUFMUA01_original

_audit_creation_method RASPA-1.0
_audit_creation_date 2022-1-30
_audit_author_name 'Felipe Lopes de Oliveira <felipe.lopes.oliveira@ibm.com>'

_cell_length_a    6.8656
_cell_length_b    9.1287
_cell_length_c    9.9209
_cell_angle_alpha 101.341
_cell_angle_beta  99.683
_cell_angle_gamma 111.95
_cell_volume      545.111

_symmetry_cell_setting          triclinic
_symmetry_space_group_name_Hall 'P 1'
_symmetry_space_group_name_H-M  'P 1'
_symmetry_Int_Tables_number     1

_symmetry_equiv_pos_as_xyz 'x,y,z'

loop_
_atom_site_label
_atom_site_type_symbol
_atom_site_fract_x
_atom_site_fract_y
_atom_site_fract_z
_atom_site_charge
Ca       Ca     0.686820000000     0.421970000000     0.891640000000     1.43657    
Ca       Ca     0.313180000000     0.578030000000     0.108360000000     1.43657    
H        H      0.508100000000     0.249200000000     0.539700000000     0.0801045  
H        H      0.141300000000     0.889700000000     0.736700000000     0.0801045  
H        H      0.163800000000     0.891200000000     0.335700000000     0.0801045  
H        H      0.716500000000     0.504200000000     0.409600000000     0.0801045  
H        H      0.491900000000     0.750800000000     0.460300000000     0.0801045  
H        H      0.858700000000     0.110300000000     0.263300000000     0.0801045  
H        H      0.836200000000     0.108800000000     0.664300000000     0.0801045  
H        H      0.283500000000     0.495800000000     0.590400000000     0.0801045  
C        C      0.916700000000     0.682500000000     0.590200000000     0.124185   
C        C      0.926800000000     0.685300000000     0.348800000000     0.124185   
C        C      0.087400000000     0.837800000000     0.639300000000     0.124185   
C        C      0.357500000000     0.084700000000     0.601600000000     0.124185   
C        C      0.100100000000     0.839500000000     0.399100000000     0.124185   
C        C      0.822000000000     0.598000000000     0.694200000000     0.124185   
C        C      0.843900000000     0.604800000000     0.191200000000     0.124185   
C        C      0.834000000000     0.607100000000     0.443800000000     0.124185   
C        C      0.178500000000     0.916600000000     0.545100000000     0.124185   
C        C      0.083300000000     0.317500000000     0.409800000000     0.124185   
C        C      0.073200000000     0.314700000000     0.651200000000     0.124185   
C        C      0.912600000000     0.162200000000     0.360700000000     0.124185   
C        C      0.642500000000     0.915300000000     0.398400000000     0.124185   
C        C      0.899900000000     0.160500000000     0.600900000000     0.124185   
C        C      0.178000000000     0.402000000000     0.305800000000     0.124185   
C        C      0.156100000000     0.395200000000     0.808800000000     0.124185   
C        C      0.166000000000     0.392900000000     0.556200000000     0.124185   
C        C      0.821500000000     0.083400000000     0.454900000000     0.124185   
O        O      0.676400000000     0.452920000000     0.648850000000    -0.479109   
O        O      0.978400000000     0.602700000000     0.120800000000    -0.479109   
O        O      0.418200000000     0.153650000000     0.502350000000    -0.479109   
O        O      0.642200000000     0.541000000000     0.133540000000    -0.479109   
O        O      0.438200000000     0.151750000000     0.728960000000    -0.479109   
O        O      0.888900000000     0.672900000000     0.824560000000    -0.479109   
O        O      0.323600000000     0.547080000000     0.351150000000    -0.479109   
O        O      0.021600000000     0.397300000000     0.879200000000    -0.479109   
O        O      0.581800000000     0.846350000000     0.497650000000    -0.479109   
O        O      0.357800000000     0.459000000000     0.866460000000    -0.479109   
O        O      0.561800000000     0.848250000000     0.271040000000    -0.479109   
O        O      0.111100000000     0.327100000000     0.175440000000    -0.479109   


