data_RUFMUA_original

_audit_creation_method RASPA-1.0
_audit_creation_date 2022-1-30
_audit_author_name 'Felipe Lopes de Oliveira <felipe.lopes.oliveira@ibm.com>'

_cell_length_a    6.853
_cell_length_b    9.007
_cell_length_c    9.987
_cell_angle_alpha 102.13
_cell_angle_beta  100.53
_cell_angle_gamma 110.21
_cell_volume      543.233

_symmetry_cell_setting          triclinic
_symmetry_space_group_name_Hall 'P 1'
_symmetry_space_group_name_H-M  'P 1'
_symmetry_Int_Tables_number     1

_symmetry_equiv_pos_as_xyz 'x,y,z'

loop_
_atom_site_label
_atom_site_type_symbol
_atom_site_fract_x
_atom_site_fract_y
_atom_site_fract_z
_atom_site_charge
Ca       Ca     0.685200000000     0.415320000000     0.390090000000     1.41979    
Ca       Ca     0.314800000000     0.584680000000     0.609910000000     1.41979    
H        H      0.494800000000     0.229100000000     0.041600000000     0.0896847  
H        H      0.704400000000     0.491200000000     0.909300000000     0.0896847  
H        H      0.126700000000     0.884800000000     0.243100000000     0.0896847  
H        H      0.155900000000     0.875800000000     0.838500000000     0.0896847  
H        H      0.505200000000     0.770900000000     0.958400000000     0.0896847  
H        H      0.295600000000     0.508800000000     0.090700000000     0.0896847  
H        H      0.873300000000     0.115200000000     0.756900000000     0.0896847  
H        H      0.844100000000     0.124200000000     0.161500000000     0.0896847  
C        C      0.915300000000     0.672300000000     0.850700000000     0.118869   
C        C      0.822600000000     0.596300000000     0.945000000000     0.118869   
C        C      0.903700000000     0.674500000000     0.091500000000     0.118869   
C        C      0.073800000000     0.830100000000     0.143500000000     0.118869   
C        C      0.166500000000     0.905600000000     0.049200000000     0.118869   
C        C      0.089600000000     0.825700000000     0.902400000000     0.118869   
C        C      0.832200000000     0.589800000000     0.693300000000     0.118869   
C        C      0.806300000000     0.591400000000     0.193100000000     0.118869   
C        C      0.344200000000     0.074200000000     0.105800000000     0.118869   
C        C      0.084700000000     0.327700000000     0.149300000000     0.118869   
C        C      0.177400000000     0.403700000000     0.055000000000     0.118869   
C        C      0.096300000000     0.325500000000     0.908500000000     0.118869   
C        C      0.926200000000     0.169900000000     0.856500000000     0.118869   
C        C      0.833500000000     0.094400000000     0.950800000000     0.118869   
C        C      0.910400000000     0.174300000000     0.097600000000     0.118869   
C        C      0.167800000000     0.410200000000     0.306700000000     0.118869   
C        C      0.193700000000     0.408600000000     0.806900000000     0.118869   
C        C      0.655800000000     0.925800000000     0.894200000000     0.118869   
O        O      0.966900000000     0.591500000000     0.622300000000    -0.474725   
O        O      0.631300000000     0.520900000000     0.634700000000    -0.474725   
O        O      0.674500000000     0.442200000000     0.147000000000    -0.474725   
O        O      0.859800000000     0.672200000000     0.323600000000    -0.474725   
O        O      0.406300000000     0.136600000000     0.005100000000    -0.474725   
O        O      0.421700000000     0.147500000000     0.233100000000    -0.474725   
O        O      0.033100000000     0.408500000000     0.377700000000    -0.474725   
O        O      0.368700000000     0.479100000000     0.365300000000    -0.474725   
O        O      0.325500000000     0.557800000000     0.853000000000    -0.474725   
O        O      0.140200000000     0.327800000000     0.676400000000    -0.474725   
O        O      0.593700000000     0.863400000000     0.994900000000    -0.474725   
O        O      0.578300000000     0.852500000000     0.766900000000    -0.474725   


