data_RUPZIM_original

_audit_creation_method RASPA-1.0
_audit_creation_date 2022-1-29
_audit_author_name 'Felipe Lopes de Oliveira <felipe.lopes.oliveira@ibm.com>'

_cell_length_a    7.6145
_cell_length_b    11.133
_cell_length_c    16.8688
_cell_angle_alpha 90
_cell_angle_beta  90
_cell_angle_gamma 90
_cell_volume      1430.01

_symmetry_cell_setting          triclinic
_symmetry_space_group_name_Hall 'P 1'
_symmetry_space_group_name_H-M  'P 1'
_symmetry_Int_Tables_number     1

_symmetry_equiv_pos_as_xyz 'x,y,z'

loop_
_atom_site_label
_atom_site_type_symbol
_atom_site_fract_x
_atom_site_fract_y
_atom_site_fract_z
_atom_site_charge
Zn       Zn     0.897710000000     0.859080000000     0.038420000000     0.440127   
Zn       Zn     0.602290000000     0.140920000000     0.538420000000     0.440127   
Zn       Zn     0.102290000000     0.359080000000     0.461580000000     0.440127   
Zn       Zn     0.397710000000     0.640920000000     0.961580000000     0.440127   
H        H      0.783400000000     0.794800000000     0.784100000000     0.0641453  
H        H      0.755100000000     0.607400000000     0.367900000000     0.0641453  
H        H      0.984200000000     0.400800000000     0.154900000000     0.0641453  
H        H      0.740700000000     0.827000000000     0.649500000000     0.0641453  
H        H      0.987400000000     0.314600000000     0.280000000000     0.0641453  
H        H      0.754600000000     0.694400000000     0.242700000000     0.0641453  
H        H      0.987000000000     0.124000000000     0.805600000000     0.0641453  
H        H      0.939000000000     0.174000000000     0.669000000000     0.0641453  
H        H      0.716600000000     0.205200000000     0.284100000000     0.0641453  
H        H      0.744900000000     0.392600000000     0.867900000000     0.0641453  
H        H      0.515800000000     0.599200000000     0.654900000000     0.0641453  
H        H      0.759300000000     0.173000000000     0.149500000000     0.0641453  
H        H      0.512600000000     0.685400000000     0.780000000000     0.0641453  
H        H      0.745400000000     0.305600000000     0.742700000000     0.0641453  
H        H      0.513000000000     0.876000000000     0.305600000000     0.0641453  
H        H      0.561000000000     0.826000000000     0.169000000000     0.0641453  
H        H      0.216600000000     0.294800000000     0.715900000000     0.0641453  
H        H      0.244900000000     0.107400000000     0.132100000000     0.0641453  
H        H      0.015800000000     0.900800000000     0.345100000000     0.0641453  
H        H      0.259300000000     0.327000000000     0.850500000000     0.0641453  
H        H      0.012600000000     0.814600000000     0.220000000000     0.0641453  
H        H      0.245400000000     0.194400000000     0.257300000000     0.0641453  
H        H      0.013000000000     0.624000000000     0.694400000000     0.0641453  
H        H      0.061000000000     0.674000000000     0.831000000000     0.0641453  
H        H      0.283400000000     0.705200000000     0.215900000000     0.0641453  
H        H      0.255100000000     0.892600000000     0.632100000000     0.0641453  
H        H      0.484200000000     0.099200000000     0.845100000000     0.0641453  
H        H      0.240700000000     0.673000000000     0.350500000000     0.0641453  
H        H      0.487400000000     0.185400000000     0.720000000000     0.0641453  
H        H      0.254600000000     0.805600000000     0.757300000000     0.0641453  
H        H      0.487000000000     0.376000000000     0.194400000000     0.0641453  
H        H      0.439000000000     0.326000000000     0.331000000000     0.0641453  
C        C      0.914400000000     0.085000000000     0.693500000000     0.0246013  
C        C      0.815700000000     0.867700000000     0.761600000000     0.0246013  
C        C      0.889300000000     0.955000000000     0.808200000000     0.0246013  
C        C      0.799600000000     0.564900000000     0.324800000000     0.0246013  
C        C      0.868900000000     0.556300000000     0.185500000000     0.0246013  
C        C      0.937400000000     0.442900000000     0.197600000000     0.0246013  
C        C      0.788900000000     0.887000000000     0.681000000000     0.0246013  
C        C      0.864600000000     0.450200000000     0.335800000000     0.0246013  
C        C      0.912800000000     0.933900000000     0.893500000000     0.0246013  
C        C      0.937800000000     0.390100000000     0.272700000000     0.0246013  
C        C      0.800400000000     0.617700000000     0.249600000000     0.0246013  
C        C      0.835200000000     0.997700000000     0.648300000000     0.0246013  
C        C      0.938000000000     0.064300000000     0.774000000000     0.0246013  
C        C      0.872700000000     0.616100000000     0.105500000000     0.0246013  
C        C      0.585600000000     0.915000000000     0.193500000000     0.0246013  
C        C      0.684300000000     0.132300000000     0.261600000000     0.0246013  
C        C      0.610700000000     0.045000000000     0.308200000000     0.0246013  
C        C      0.700400000000     0.435100000000     0.824800000000     0.0246013  
C        C      0.631100000000     0.443700000000     0.685500000000     0.0246013  
C        C      0.562600000000     0.557100000000     0.697600000000     0.0246013  
C        C      0.711100000000     0.113000000000     0.181000000000     0.0246013  
C        C      0.635400000000     0.549800000000     0.835800000000     0.0246013  
C        C      0.587200000000     0.066100000000     0.393500000000     0.0246013  
C        C      0.562200000000     0.609900000000     0.772700000000     0.0246013  
C        C      0.699600000000     0.382300000000     0.749600000000     0.0246013  
C        C      0.664800000000     0.002300000000     0.148300000000     0.0246013  
C        C      0.562000000000     0.935700000000     0.274000000000     0.0246013  
C        C      0.627300000000     0.383900000000     0.605500000000     0.0246013  
C        C      0.085600000000     0.585000000000     0.806500000000     0.0246013  
C        C      0.184300000000     0.367700000000     0.738400000000     0.0246013  
C        C      0.110700000000     0.455000000000     0.691800000000     0.0246013  
C        C      0.200400000000     0.064900000000     0.175200000000     0.0246013  
C        C      0.131100000000     0.056300000000     0.314500000000     0.0246013  
C        C      0.062600000000     0.942900000000     0.302400000000     0.0246013  
C        C      0.211100000000     0.387000000000     0.819000000000     0.0246013  
C        C      0.135400000000     0.950200000000     0.164200000000     0.0246013  
C        C      0.087200000000     0.433900000000     0.606500000000     0.0246013  
C        C      0.062200000000     0.890100000000     0.227300000000     0.0246013  
C        C      0.199600000000     0.117700000000     0.250400000000     0.0246013  
C        C      0.164800000000     0.497700000000     0.851700000000     0.0246013  
C        C      0.062000000000     0.564300000000     0.726000000000     0.0246013  
C        C      0.127300000000     0.116100000000     0.394500000000     0.0246013  
C        C      0.414400000000     0.415000000000     0.306500000000     0.0246013  
C        C      0.315700000000     0.632300000000     0.238400000000     0.0246013  
C        C      0.389300000000     0.545000000000     0.191800000000     0.0246013  
C        C      0.299600000000     0.935100000000     0.675200000000     0.0246013  
C        C      0.368900000000     0.943700000000     0.814500000000     0.0246013  
C        C      0.437400000000     0.057100000000     0.802400000000     0.0246013  
C        C      0.288900000000     0.613000000000     0.319000000000     0.0246013  
C        C      0.364600000000     0.049800000000     0.664200000000     0.0246013  
C        C      0.412800000000     0.566100000000     0.106500000000     0.0246013  
C        C      0.437800000000     0.109900000000     0.727300000000     0.0246013  
C        C      0.300400000000     0.882300000000     0.750400000000     0.0246013  
C        C      0.335200000000     0.502300000000     0.351700000000     0.0246013  
C        C      0.438000000000     0.435700000000     0.226000000000     0.0246013  
C        C      0.372700000000     0.883900000000     0.894500000000     0.0246013  
N        N      0.801200000000     0.019400000000     0.564400000000    -0.128918   
N        N      0.856400000000     0.391700000000     0.412600000000    -0.128918   
N        N      0.698800000000     0.980600000000     0.064400000000    -0.128918   
N        N      0.643600000000     0.608300000000     0.912600000000    -0.128918   
N        N      0.198800000000     0.519400000000     0.935600000000    -0.128918   
N        N      0.143600000000     0.891700000000     0.087400000000    -0.128918   
N        N      0.301200000000     0.480600000000     0.435600000000    -0.128918   
N        N      0.356400000000     0.108300000000     0.587400000000    -0.128918   
O        O      0.866400000000     0.832200000000     0.923300000000    -0.259968   
O        O      0.977200000000     0.013500000000     0.938100000000    -0.259968   
O        O      0.822700000000     0.723100000000     0.102100000000    -0.259968   
O        O      0.917500000000     0.555400000000     0.046400000000    -0.259968   
O        O      0.633600000000     0.167800000000     0.423300000000    -0.259968   
O        O      0.522800000000     0.986500000000     0.438100000000    -0.259968   
O        O      0.677300000000     0.276900000000     0.602100000000    -0.259968   
O        O      0.582500000000     0.444600000000     0.546400000000    -0.259968   
O        O      0.133600000000     0.332200000000     0.576700000000    -0.259968   
O        O      0.022800000000     0.513500000000     0.561900000000    -0.259968   
O        O      0.177300000000     0.223100000000     0.397900000000    -0.259968   
O        O      0.082500000000     0.055400000000     0.453600000000    -0.259968   
O        O      0.366400000000     0.667800000000     0.076700000000    -0.259968   
O        O      0.477200000000     0.486500000000     0.061900000000    -0.259968   
O        O      0.322700000000     0.776900000000     0.897900000000    -0.259968   
O        O      0.417500000000     0.944600000000     0.953600000000    -0.259968   


