data_SABVOH01_original

_audit_creation_method RASPA-1.0
_audit_creation_date 2022-1-30
_audit_author_name 'Felipe Lopes de Oliveira <felipe.lopes.oliveira@ibm.com>'

_cell_length_a    6.5844
_cell_length_b    12.262
_cell_length_c    17.019
_cell_angle_alpha 90
_cell_angle_beta  90
_cell_angle_gamma 90
_cell_volume      1374.08

_symmetry_cell_setting          triclinic
_symmetry_space_group_name_Hall 'P 1'
_symmetry_space_group_name_H-M  'P 1'
_symmetry_Int_Tables_number     1

_symmetry_equiv_pos_as_xyz 'x,y,z'

loop_
_atom_site_label
_atom_site_type_symbol
_atom_site_fract_x
_atom_site_fract_y
_atom_site_fract_z
_atom_site_charge
Al       Al     0.000000000000     0.000000000000     0.000000000000     9.29342    
Al       Al     0.000000000000     0.500000000000     0.500000000000     9.29342    
Al       Al     0.500000000000     0.000000000000     0.000000000000     9.29342    
Al       Al     0.500000000000     0.500000000000     0.500000000000     9.29342    
H        H      0.054000000000     0.680000000000     0.296600000000     0.292517   
H        H      0.946000000000     0.180000000000     0.203400000000     0.292517   
H        H      0.554000000000     0.320000000000     0.703400000000     0.292517   
H        H      0.446000000000     0.820000000000     0.796600000000     0.292517   
H        H      0.946000000000     0.320000000000     0.703400000000     0.292517   
H        H      0.054000000000     0.820000000000     0.796600000000     0.292517   
H        H      0.446000000000     0.680000000000     0.296600000000     0.292517   
H        H      0.554000000000     0.180000000000     0.203400000000     0.292517   
H        H      0.054100000000     0.782500000000     0.182300000000     0.292517   
H        H      0.945900000000     0.282500000000     0.317700000000     0.292517   
H        H      0.554100000000     0.217500000000     0.817700000000     0.292517   
H        H      0.445900000000     0.717500000000     0.682300000000     0.292517   
H        H      0.945900000000     0.217500000000     0.817700000000     0.292517   
H        H      0.054100000000     0.717500000000     0.682300000000     0.292517   
H        H      0.445900000000     0.782500000000     0.182300000000     0.292517   
H        H      0.554100000000     0.282500000000     0.317700000000     0.292517   
H        H      0.750000000000     0.128400000000     0.017000000000     0.292517   
H        H      0.250000000000     0.628400000000     0.483000000000     0.292517   
H        H      0.250000000000     0.871600000000     0.983000000000     0.292517   
H        H      0.750000000000     0.371600000000     0.517000000000     0.292517   
C        C      0.931700000000     0.701300000000     0.273910000000     0.319178   
C        C      0.068300000000     0.201300000000     0.226090000000     0.319178   
C        C      0.431700000000     0.298700000000     0.726090000000     0.319178   
C        C      0.568300000000     0.798700000000     0.773910000000     0.319178   
C        C      0.068300000000     0.298700000000     0.726090000000     0.319178   
C        C      0.931700000000     0.798700000000     0.773910000000     0.319178   
C        C      0.568300000000     0.701300000000     0.273910000000     0.319178   
C        C      0.431700000000     0.201300000000     0.226090000000     0.319178   
C        C      0.931800000000     0.762000000000     0.205270000000     0.319178   
C        C      0.068200000000     0.262000000000     0.294730000000     0.319178   
C        C      0.431800000000     0.238000000000     0.794730000000     0.319178   
C        C      0.568200000000     0.738000000000     0.705270000000     0.319178   
C        C      0.068200000000     0.238000000000     0.794730000000     0.319178   
C        C      0.931800000000     0.738000000000     0.705270000000     0.319178   
C        C      0.568200000000     0.762000000000     0.205270000000     0.319178   
C        C      0.431800000000     0.262000000000     0.294730000000     0.319178   
C        C      0.750000000000     0.609900000000     0.384090000000     0.319178   
C        C      0.250000000000     0.109900000000     0.115910000000     0.319178   
C        C      0.250000000000     0.390100000000     0.615910000000     0.319178   
C        C      0.750000000000     0.890100000000     0.884090000000     0.319178   
C        C      0.750000000000     0.672300000000     0.308650000000     0.319178   
C        C      0.250000000000     0.172300000000     0.191350000000     0.319178   
C        C      0.250000000000     0.327700000000     0.691350000000     0.319178   
C        C      0.750000000000     0.827700000000     0.808650000000     0.319178   
C        C      0.750000000000     0.862900000000     0.099340000000     0.319178   
C        C      0.250000000000     0.362900000000     0.400660000000     0.319178   
C        C      0.250000000000     0.137100000000     0.900660000000     0.319178   
C        C      0.750000000000     0.637100000000     0.599340000000     0.319178   
C        C      0.750000000000     0.792300000000     0.170870000000     0.319178   
C        C      0.250000000000     0.292300000000     0.329130000000     0.319178   
C        C      0.250000000000     0.207700000000     0.829130000000     0.319178   
C        C      0.750000000000     0.707700000000     0.670870000000     0.319178   
O        O      0.920100000000     0.890830000000     0.072300000000    -2.66189    
O        O      0.079900000000     0.390830000000     0.427700000000    -2.66189    
O        O      0.420100000000     0.109170000000     0.927700000000    -2.66189    
O        O      0.579900000000     0.609170000000     0.572300000000    -2.66189    
O        O      0.079900000000     0.109170000000     0.927700000000    -2.66189    
O        O      0.920100000000     0.609170000000     0.572300000000    -2.66189    
O        O      0.579900000000     0.890830000000     0.072300000000    -2.66189    
O        O      0.420100000000     0.390830000000     0.427700000000    -2.66189    
O        O      0.920200000000     0.586060000000     0.413250000000    -2.66189    
O        O      0.079800000000     0.086060000000     0.086750000000    -2.66189    
O        O      0.420200000000     0.413940000000     0.586750000000    -2.66189    
O        O      0.579800000000     0.913940000000     0.913250000000    -2.66189    
O        O      0.079800000000     0.413940000000     0.586750000000    -2.66189    
O        O      0.920200000000     0.913940000000     0.913250000000    -2.66189    
O        O      0.579800000000     0.586060000000     0.413250000000    -2.66189    
O        O      0.420200000000     0.086060000000     0.086750000000    -2.66189    
O        O      0.750000000000     0.064180000000     0.005110000000    -2.66189    
O        O      0.250000000000     0.564180000000     0.494890000000    -2.66189    
O        O      0.250000000000     0.935820000000     0.994890000000    -2.66189    
O        O      0.750000000000     0.435820000000     0.505110000000    -2.66189    


