data_SABVUN_original

_audit_creation_method RASPA-1.0
_audit_creation_date 2022-2-1
_audit_author_name 'Felipe Lopes de Oliveira <felipe.lopes.oliveira@ibm.com>'

_cell_length_a    6.6085
_cell_length_b    11.0216
_cell_length_c    11.0216
_cell_angle_alpha 98.3081
_cell_angle_beta  107.445
_cell_angle_gamma 107.445
_cell_volume      705.979

_symmetry_cell_setting          triclinic
_symmetry_space_group_name_Hall 'P 1'
_symmetry_space_group_name_H-M  'P 1'
_symmetry_Int_Tables_number     1

_symmetry_equiv_pos_as_xyz 'x,y,z'

loop_
_atom_site_label
_atom_site_type_symbol
_atom_site_fract_x
_atom_site_fract_y
_atom_site_fract_z
_atom_site_charge
Al       Al     0.009340000000     0.502900000000     0.999460000000     22.6605    
Al       Al     0.509440000000     0.501880000000     0.999940000000     22.6605    
H        H      0.383500000000     0.115720000000     0.989120000000     0.486144   
H        H      0.733960000000     0.492100000000     0.613320000000     0.486144   
H        H      0.626760000000     0.507360000000     0.386000000000     0.486144   
H        H      0.281180000000     0.890280000000     0.010400000000     0.486144   
H        H      0.629880000000     0.890020000000     0.009840000000     0.486144   
H        H      0.278960000000     0.508180000000     0.385700000000     0.486144   
H        H      0.384100000000     0.491560000000     0.613280000000     0.486144   
H        H      0.733080000000     0.116400000000     0.989760000000     0.486144   
H        H      0.383260000000     0.630060000000     0.118780000000     0.486144   
H        H      0.636940000000     0.388880000000     0.868420000000     0.486144   
C        C      0.218980000000     0.068280000000     0.994480000000     0.716069   
C        C      0.853700000000     0.494060000000     0.564580000000     0.716069   
C        C      0.792080000000     0.502720000000     0.433340000000     0.716069   
C        C      0.160620000000     0.938520000000     0.007500000000     0.716069   
C        C      0.796180000000     0.938280000000     0.007360000000     0.716069   
C        C      0.156880000000     0.502960000000     0.433320000000     0.716069   
C        C      0.217840000000     0.493820000000     0.564460000000     0.716069   
C        C      0.854780000000     0.068440000000     0.994720000000     0.716069   
C        C      0.067660000000     0.135780000000     0.988440000000     0.716069   
C        C      0.137880000000     0.277540000000     0.984640000000     0.716069   
C        C      0.068200000000     0.490180000000     0.632760000000     0.716069   
C        C      0.139340000000     0.489800000000     0.775480000000     0.716069   
C        C      0.942360000000     0.506680000000     0.365140000000     0.716069   
C        C      0.873380000000     0.509900000000     0.223140000000     0.716069   
C        C      0.948140000000     0.870700000000     0.013780000000     0.716069   
C        C      0.879960000000     0.728080000000     0.016120000000     0.716069   
O        O      0.996100000000     0.336500000000     0.984720000000    -6.16396    
O        O      0.340980000000     0.490580000000     0.834380000000    -6.16396    
O        O      0.016260000000     0.510860000000     0.164700000000    -6.16396    
O        O      0.678360000000     0.668680000000     0.015220000000    -6.16396    
O        O      0.022660000000     0.669820000000     0.014220000000    -6.16396    
O        O      0.671780000000     0.509080000000     0.164860000000    -6.16396    
O        O      0.997640000000     0.491780000000     0.833940000000    -6.16396    
O        O      0.340540000000     0.335900000000     0.986940000000    -6.16396    
O        O      0.315820000000     0.560120000000     0.054420000000    -6.16396    
O        O      0.703720000000     0.450140000000     0.940840000000    -6.16396    


