data_SADMUH_original

_audit_creation_method RASPA-1.0
_audit_creation_date 2022-1-29
_audit_author_name 'Felipe Lopes de Oliveira <felipe.lopes.oliveira@ibm.com>'

_cell_length_a    6.9351
_cell_length_b    11.2918
_cell_length_c    11.2918
_cell_angle_alpha 79.1777
_cell_angle_beta  72.1164
_cell_angle_gamma 72.1164
_cell_volume      796.596

_symmetry_cell_setting          triclinic
_symmetry_space_group_name_Hall 'P 1'
_symmetry_space_group_name_H-M  'P 1'
_symmetry_Int_Tables_number     1

_symmetry_equiv_pos_as_xyz 'x,y,z'

loop_
_atom_site_label
_atom_site_type_symbol
_atom_site_fract_x
_atom_site_fract_y
_atom_site_fract_z
_atom_site_charge
Fe       Fe     0.500000000000     0.000000000000     0.500000000000     1.07825    
Fe       Fe     0.000000000000     0.000000000000     0.500000000000     1.07825    
H        H      0.259800000000     0.999800000000     0.890000000000     0.0531065  
H        H      0.240200000000     0.610000000000     0.500200000000     0.0531065  
H        H      0.350400000000     0.390000000000     0.499800000000     0.0531065  
H        H      0.149600000000     0.000200000000     0.110000000000     0.0531065  
H        H      0.740200000000     0.000200000000     0.110000000000     0.0531065  
H        H      0.759800000000     0.390000000000     0.499800000000     0.0531065  
H        H      0.649600000000     0.610000000000     0.500200000000     0.0531065  
H        H      0.850400000000     0.999800000000     0.890000000000     0.0531065  
C        C      0.359400000000     0.999800000000     0.935600000000     0.0738742  
C        C      0.140600000000     0.564400000000     0.500200000000     0.0738742  
C        C      0.205200000000     0.435600000000     0.499800000000     0.0738742  
C        C      0.294800000000     0.000200000000     0.064400000000     0.0738742  
C        C      0.640600000000     0.000200000000     0.064400000000     0.0738742  
C        C      0.859400000000     0.435600000000     0.499800000000     0.0738742  
C        C      0.794800000000     0.564400000000     0.500200000000     0.0738742  
C        C      0.705200000000     0.999800000000     0.935600000000     0.0738742  
C        C      0.564600000000     0.999700000000     0.871100000000     0.0738742  
C        C      0.633100000000     0.999400000000     0.734400000000     0.0738742  
C        C      0.935400000000     0.628900000000     0.500300000000     0.0738742  
C        C      0.866900000000     0.765600000000     0.500600000000     0.0738742  
C        C      0.064600000000     0.371100000000     0.499700000000     0.0738742  
C        C      0.133100000000     0.234400000000     0.499400000000     0.0738742  
C        C      0.435400000000     0.000300000000     0.128900000000     0.0738742  
C        C      0.366900000000     0.000600000000     0.265600000000     0.0738742  
O        O      0.504100000000     0.999300000000     0.675300000000    -0.376334   
O        O      0.995900000000     0.824700000000     0.500700000000    -0.376334   
O        O      0.321300000000     0.175300000000     0.499300000000    -0.376334   
O        O      0.178700000000     0.000700000000     0.324700000000    -0.376334   
O        O      0.495900000000     0.000700000000     0.324700000000    -0.376334   
O        O      0.004100000000     0.175300000000     0.499300000000    -0.376334   
O        O      0.678700000000     0.824700000000     0.500700000000    -0.376334   
O        O      0.821300000000     0.999300000000     0.675300000000    -0.376334   
O        O      0.750000000000     0.061900000000     0.438100000000    -0.376334   
O        O      0.250000000000     0.938100000000     0.561900000000    -0.376334   


