data_SAHYOQ04_original

_audit_creation_method RASPA-1.0
_audit_creation_date 2022-1-29
_audit_author_name 'Felipe Lopes de Oliveira <felipe.lopes.oliveira@ibm.com>'

_cell_length_a    18.3054
_cell_length_b    18.3054
_cell_length_c    18.3054
_cell_angle_alpha 60
_cell_angle_beta  60
_cell_angle_gamma 60
_cell_volume      4337.33

_symmetry_cell_setting          triclinic
_symmetry_space_group_name_Hall 'P 1'
_symmetry_space_group_name_H-M  'P 1'
_symmetry_Int_Tables_number     1

_symmetry_equiv_pos_as_xyz 'x,y,z'

loop_
_atom_site_label
_atom_site_type_symbol
_atom_site_fract_x
_atom_site_fract_y
_atom_site_fract_z
_atom_site_charge
Zn       Zn     0.206200000000     0.381400000000     0.206200000000     0.47432    
Zn       Zn     0.381400000000     0.206200000000     0.206200000000     0.47432    
Zn       Zn     0.206200000000     0.206200000000     0.206200000000     0.47432    
Zn       Zn     0.206200000000     0.206200000000     0.381400000000     0.47432    
Zn       Zn     0.618600000000     0.793800000000     0.793800000000     0.47432    
Zn       Zn     0.793800000000     0.618600000000     0.793800000000     0.47432    
Zn       Zn     0.793800000000     0.793800000000     0.793800000000     0.47432    
Zn       Zn     0.793800000000     0.793800000000     0.618600000000     0.47432    
H        H      0.049100000000     0.562900000000     0.049100000000     0.0549137  
H        H      0.562900000000     0.049100000000     0.338900000000     0.0549137  
H        H      0.049100000000     0.338900000000     0.049100000000     0.0549137  
H        H      0.338900000000     0.049100000000     0.562900000000     0.0549137  
H        H      0.049100000000     0.049100000000     0.338900000000     0.0549137  
H        H      0.562900000000     0.338900000000     0.049100000000     0.0549137  
H        H      0.049100000000     0.049100000000     0.562900000000     0.0549137  
H        H      0.338900000000     0.562900000000     0.049100000000     0.0549137  
H        H      0.049100000000     0.338900000000     0.562900000000     0.0549137  
H        H      0.562900000000     0.049100000000     0.049100000000     0.0549137  
H        H      0.049100000000     0.562900000000     0.338900000000     0.0549137  
H        H      0.338900000000     0.049100000000     0.049100000000     0.0549137  
H        H      0.437100000000     0.950900000000     0.950900000000     0.0549137  
H        H      0.950900000000     0.437100000000     0.661100000000     0.0549137  
H        H      0.661100000000     0.950900000000     0.950900000000     0.0549137  
H        H      0.950900000000     0.661100000000     0.437100000000     0.0549137  
H        H      0.950900000000     0.950900000000     0.661100000000     0.0549137  
H        H      0.661100000000     0.437100000000     0.950900000000     0.0549137  
H        H      0.950900000000     0.950900000000     0.437100000000     0.0549137  
H        H      0.437100000000     0.661100000000     0.950900000000     0.0549137  
H        H      0.661100000000     0.950900000000     0.437100000000     0.0549137  
H        H      0.950900000000     0.437100000000     0.950900000000     0.0549137  
H        H      0.437100000000     0.950900000000     0.661100000000     0.0549137  
H        H      0.950900000000     0.661100000000     0.950900000000     0.0549137  
C        C      0.026100000000     0.539700000000     0.026100000000     0.0548123  
C        C      0.539700000000     0.026100000000     0.408100000000     0.0548123  
C        C      0.026100000000     0.408100000000     0.026100000000     0.0548123  
C        C      0.408100000000     0.026100000000     0.539700000000     0.0548123  
C        C      0.026100000000     0.026100000000     0.408100000000     0.0548123  
C        C      0.539700000000     0.408100000000     0.026100000000     0.0548123  
C        C      0.026100000000     0.026100000000     0.539700000000     0.0548123  
C        C      0.408100000000     0.539700000000     0.026100000000     0.0548123  
C        C      0.026100000000     0.408100000000     0.539700000000     0.0548123  
C        C      0.539700000000     0.026100000000     0.026100000000     0.0548123  
C        C      0.026100000000     0.539700000000     0.408100000000     0.0548123  
C        C      0.408100000000     0.026100000000     0.026100000000     0.0548123  
C        C      0.460300000000     0.973900000000     0.973900000000     0.0548123  
C        C      0.973900000000     0.460300000000     0.591900000000     0.0548123  
C        C      0.591900000000     0.973900000000     0.973900000000     0.0548123  
C        C      0.973900000000     0.591900000000     0.460300000000     0.0548123  
C        C      0.973900000000     0.973900000000     0.591900000000     0.0548123  
C        C      0.591900000000     0.460300000000     0.973900000000     0.0548123  
C        C      0.973900000000     0.973900000000     0.460300000000     0.0548123  
C        C      0.460300000000     0.591900000000     0.973900000000     0.0548123  
C        C      0.591900000000     0.973900000000     0.460300000000     0.0548123  
C        C      0.973900000000     0.460300000000     0.973900000000     0.0548123  
C        C      0.460300000000     0.973900000000     0.591900000000     0.0548123  
C        C      0.973900000000     0.591900000000     0.973900000000     0.0548123  
C        C      0.108500000000     0.391500000000     0.108500000000     0.0548123  
C        C      0.055000000000     0.445000000000     0.055000000000     0.0548123  
C        C      0.391500000000     0.108500000000     0.391500000000     0.0548123  
C        C      0.445000000000     0.055000000000     0.445000000000     0.0548123  
C        C      0.108500000000     0.108500000000     0.391500000000     0.0548123  
C        C      0.055000000000     0.055000000000     0.445000000000     0.0548123  
C        C      0.391500000000     0.391500000000     0.108500000000     0.0548123  
C        C      0.445000000000     0.445000000000     0.055000000000     0.0548123  
C        C      0.108500000000     0.391500000000     0.391500000000     0.0548123  
C        C      0.055000000000     0.445000000000     0.445000000000     0.0548123  
C        C      0.391500000000     0.108500000000     0.108500000000     0.0548123  
C        C      0.445000000000     0.055000000000     0.055000000000     0.0548123  
C        C      0.608500000000     0.891500000000     0.891500000000     0.0548123  
C        C      0.555000000000     0.945000000000     0.945000000000     0.0548123  
C        C      0.891500000000     0.608500000000     0.608500000000     0.0548123  
C        C      0.945000000000     0.555000000000     0.555000000000     0.0548123  
C        C      0.891500000000     0.891500000000     0.608500000000     0.0548123  
C        C      0.945000000000     0.945000000000     0.555000000000     0.0548123  
C        C      0.608500000000     0.608500000000     0.891500000000     0.0548123  
C        C      0.555000000000     0.555000000000     0.945000000000     0.0548123  
C        C      0.608500000000     0.891500000000     0.608500000000     0.0548123  
C        C      0.555000000000     0.945000000000     0.555000000000     0.0548123  
C        C      0.891500000000     0.608500000000     0.891500000000     0.0548123  
C        C      0.945000000000     0.555000000000     0.945000000000     0.0548123  
O        O      0.250000000000     0.250000000000     0.250000000000    -0.297826   
O        O      0.750000000000     0.750000000000     0.750000000000    -0.297826   
O        O      0.133900000000     0.427300000000     0.133900000000    -0.297826   
O        O      0.427300000000     0.133900000000     0.304900000000    -0.297826   
O        O      0.133900000000     0.304900000000     0.133900000000    -0.297826   
O        O      0.304900000000     0.133900000000     0.427300000000    -0.297826   
O        O      0.133900000000     0.133900000000     0.304900000000    -0.297826   
O        O      0.427300000000     0.304900000000     0.133900000000    -0.297826   
O        O      0.133900000000     0.133900000000     0.427300000000    -0.297826   
O        O      0.304900000000     0.427300000000     0.133900000000    -0.297826   
O        O      0.133900000000     0.304900000000     0.427300000000    -0.297826   
O        O      0.427300000000     0.133900000000     0.133900000000    -0.297826   
O        O      0.133900000000     0.427300000000     0.304900000000    -0.297826   
O        O      0.304900000000     0.133900000000     0.133900000000    -0.297826   
O        O      0.572700000000     0.866100000000     0.866100000000    -0.297826   
O        O      0.866100000000     0.572700000000     0.695100000000    -0.297826   
O        O      0.695100000000     0.866100000000     0.866100000000    -0.297826   
O        O      0.866100000000     0.695100000000     0.572700000000    -0.297826   
O        O      0.866100000000     0.866100000000     0.695100000000    -0.297826   
O        O      0.695100000000     0.572700000000     0.866100000000    -0.297826   
O        O      0.866100000000     0.866100000000     0.572700000000    -0.297826   
O        O      0.572700000000     0.695100000000     0.866100000000    -0.297826   
O        O      0.695100000000     0.866100000000     0.572700000000    -0.297826   
O        O      0.866100000000     0.572700000000     0.866100000000    -0.297826   
O        O      0.572700000000     0.866100000000     0.695100000000    -0.297826   
O        O      0.866100000000     0.695100000000     0.866100000000    -0.297826   


