data_SAHYOQ05_original

_audit_creation_method RASPA-1.0
_audit_creation_date 2022-1-30
_audit_author_name 'Felipe Lopes de Oliveira <felipe.lopes.oliveira@ibm.com>'

_cell_length_a    18.3054
_cell_length_b    18.3054
_cell_length_c    18.3054
_cell_angle_alpha 60
_cell_angle_beta  60
_cell_angle_gamma 60
_cell_volume      4337.33

_symmetry_cell_setting          triclinic
_symmetry_space_group_name_Hall 'P 1'
_symmetry_space_group_name_H-M  'P 1'
_symmetry_Int_Tables_number     1

_symmetry_equiv_pos_as_xyz 'x,y,z'

loop_
_atom_site_label
_atom_site_type_symbol
_atom_site_fract_x
_atom_site_fract_y
_atom_site_fract_z
_atom_site_charge
Zn       Zn     0.205700000000     0.382900000000     0.205700000000     0.472864   
Zn       Zn     0.382900000000     0.205700000000     0.205700000000     0.472864   
Zn       Zn     0.205700000000     0.205700000000     0.205700000000     0.472864   
Zn       Zn     0.205700000000     0.205700000000     0.382900000000     0.472864   
Zn       Zn     0.617100000000     0.794300000000     0.794300000000     0.472864   
Zn       Zn     0.794300000000     0.617100000000     0.794300000000     0.472864   
Zn       Zn     0.794300000000     0.794300000000     0.794300000000     0.472864   
Zn       Zn     0.794300000000     0.794300000000     0.617100000000     0.472864   
H        H      0.043000000000     0.562000000000     0.043000000000     0.0868018  
H        H      0.562000000000     0.043000000000     0.352000000000     0.0868018  
H        H      0.043000000000     0.352000000000     0.043000000000     0.0868018  
H        H      0.352000000000     0.043000000000     0.562000000000     0.0868018  
H        H      0.043000000000     0.043000000000     0.352000000000     0.0868018  
H        H      0.562000000000     0.352000000000     0.043000000000     0.0868018  
H        H      0.043000000000     0.043000000000     0.562000000000     0.0868018  
H        H      0.352000000000     0.562000000000     0.043000000000     0.0868018  
H        H      0.043000000000     0.352000000000     0.562000000000     0.0868018  
H        H      0.562000000000     0.043000000000     0.043000000000     0.0868018  
H        H      0.043000000000     0.562000000000     0.352000000000     0.0868018  
H        H      0.352000000000     0.043000000000     0.043000000000     0.0868018  
H        H      0.438000000000     0.957000000000     0.957000000000     0.0868018  
H        H      0.957000000000     0.438000000000     0.648000000000     0.0868018  
H        H      0.648000000000     0.957000000000     0.957000000000     0.0868018  
H        H      0.957000000000     0.648000000000     0.438000000000     0.0868018  
H        H      0.957000000000     0.957000000000     0.648000000000     0.0868018  
H        H      0.648000000000     0.438000000000     0.957000000000     0.0868018  
H        H      0.957000000000     0.957000000000     0.438000000000     0.0868018  
H        H      0.438000000000     0.648000000000     0.957000000000     0.0868018  
H        H      0.648000000000     0.957000000000     0.438000000000     0.0868018  
H        H      0.957000000000     0.438000000000     0.957000000000     0.0868018  
H        H      0.438000000000     0.957000000000     0.648000000000     0.0868018  
H        H      0.957000000000     0.648000000000     0.957000000000     0.0868018  
C        C      0.028200000000     0.539200000000     0.028200000000     0.0465169  
C        C      0.539200000000     0.028200000000     0.404400000000     0.0465169  
C        C      0.028200000000     0.404400000000     0.028200000000     0.0465169  
C        C      0.404400000000     0.028200000000     0.539200000000     0.0465169  
C        C      0.028200000000     0.028200000000     0.404400000000     0.0465169  
C        C      0.539200000000     0.404400000000     0.028200000000     0.0465169  
C        C      0.028200000000     0.028200000000     0.539200000000     0.0465169  
C        C      0.404400000000     0.539200000000     0.028200000000     0.0465169  
C        C      0.028200000000     0.404400000000     0.539200000000     0.0465169  
C        C      0.539200000000     0.028200000000     0.028200000000     0.0465169  
C        C      0.028200000000     0.539200000000     0.404400000000     0.0465169  
C        C      0.404400000000     0.028200000000     0.028200000000     0.0465169  
C        C      0.460800000000     0.971800000000     0.971800000000     0.0465169  
C        C      0.971800000000     0.460800000000     0.595600000000     0.0465169  
C        C      0.595600000000     0.971800000000     0.971800000000     0.0465169  
C        C      0.971800000000     0.595600000000     0.460800000000     0.0465169  
C        C      0.971800000000     0.971800000000     0.595600000000     0.0465169  
C        C      0.595600000000     0.460800000000     0.971800000000     0.0465169  
C        C      0.971800000000     0.971800000000     0.460800000000     0.0465169  
C        C      0.460800000000     0.595600000000     0.971800000000     0.0465169  
C        C      0.595600000000     0.971800000000     0.460800000000     0.0465169  
C        C      0.971800000000     0.460800000000     0.971800000000     0.0465169  
C        C      0.460800000000     0.971800000000     0.595600000000     0.0465169  
C        C      0.971800000000     0.595600000000     0.971800000000     0.0465169  
C        C      0.114600000000     0.385400000000     0.114600000000     0.0465169  
C        C      0.054100000000     0.445900000000     0.054100000000     0.0465169  
C        C      0.385400000000     0.114600000000     0.385400000000     0.0465169  
C        C      0.445900000000     0.054100000000     0.445900000000     0.0465169  
C        C      0.114600000000     0.114600000000     0.385400000000     0.0465169  
C        C      0.054100000000     0.054100000000     0.445900000000     0.0465169  
C        C      0.385400000000     0.385400000000     0.114600000000     0.0465169  
C        C      0.445900000000     0.445900000000     0.054100000000     0.0465169  
C        C      0.114600000000     0.385400000000     0.385400000000     0.0465169  
C        C      0.054100000000     0.445900000000     0.445900000000     0.0465169  
C        C      0.385400000000     0.114600000000     0.114600000000     0.0465169  
C        C      0.445900000000     0.054100000000     0.054100000000     0.0465169  
C        C      0.614600000000     0.885400000000     0.885400000000     0.0465169  
C        C      0.554100000000     0.945900000000     0.945900000000     0.0465169  
C        C      0.885400000000     0.614600000000     0.614600000000     0.0465169  
C        C      0.945900000000     0.554100000000     0.554100000000     0.0465169  
C        C      0.885400000000     0.885400000000     0.614600000000     0.0465169  
C        C      0.945900000000     0.945900000000     0.554100000000     0.0465169  
C        C      0.614600000000     0.614600000000     0.885400000000     0.0465169  
C        C      0.554100000000     0.554100000000     0.945900000000     0.0465169  
C        C      0.614600000000     0.885400000000     0.614600000000     0.0465169  
C        C      0.554100000000     0.945900000000     0.554100000000     0.0465169  
C        C      0.885400000000     0.614600000000     0.885400000000     0.0465169  
C        C      0.945900000000     0.554100000000     0.945900000000     0.0465169  
O        O      0.250000000000     0.250000000000     0.250000000000    -0.311499   
O        O      0.750000000000     0.750000000000     0.750000000000    -0.311499   
O        O      0.133600000000     0.429200000000     0.133600000000    -0.311499   
O        O      0.429200000000     0.133600000000     0.303600000000    -0.311499   
O        O      0.133600000000     0.303600000000     0.133600000000    -0.311499   
O        O      0.303600000000     0.133600000000     0.429200000000    -0.311499   
O        O      0.133600000000     0.133600000000     0.303600000000    -0.311499   
O        O      0.429200000000     0.303600000000     0.133600000000    -0.311499   
O        O      0.133600000000     0.133600000000     0.429200000000    -0.311499   
O        O      0.303600000000     0.429200000000     0.133600000000    -0.311499   
O        O      0.133600000000     0.303600000000     0.429200000000    -0.311499   
O        O      0.429200000000     0.133600000000     0.133600000000    -0.311499   
O        O      0.133600000000     0.429200000000     0.303600000000    -0.311499   
O        O      0.303600000000     0.133600000000     0.133600000000    -0.311499   
O        O      0.570800000000     0.866400000000     0.866400000000    -0.311499   
O        O      0.866400000000     0.570800000000     0.696400000000    -0.311499   
O        O      0.696400000000     0.866400000000     0.866400000000    -0.311499   
O        O      0.866400000000     0.696400000000     0.570800000000    -0.311499   
O        O      0.866400000000     0.866400000000     0.696400000000    -0.311499   
O        O      0.696400000000     0.570800000000     0.866400000000    -0.311499   
O        O      0.866400000000     0.866400000000     0.570800000000    -0.311499   
O        O      0.570800000000     0.696400000000     0.866400000000    -0.311499   
O        O      0.696400000000     0.866400000000     0.570800000000    -0.311499   
O        O      0.866400000000     0.570800000000     0.866400000000    -0.311499   
O        O      0.570800000000     0.866400000000     0.696400000000    -0.311499   
O        O      0.866400000000     0.696400000000     0.866400000000    -0.311499   


