data_SARBOE_original

_audit_creation_method RASPA-1.0
_audit_creation_date 2022-1-31
_audit_author_name 'Felipe Lopes de Oliveira <felipe.lopes.oliveira@ibm.com>'

_cell_length_a    8.4241
_cell_length_b    14.3885
_cell_length_c    15.4745
_cell_angle_alpha 90
_cell_angle_beta  90
_cell_angle_gamma 90
_cell_volume      1875.67

_symmetry_cell_setting          triclinic
_symmetry_space_group_name_Hall 'P 1'
_symmetry_space_group_name_H-M  'P 1'
_symmetry_Int_Tables_number     1

_symmetry_equiv_pos_as_xyz 'x,y,z'

loop_
_atom_site_label
_atom_site_type_symbol
_atom_site_fract_x
_atom_site_fract_y
_atom_site_fract_z
_atom_site_charge
Zn       Zn     0.212750000000     0.249680000000     0.189860000000     0.416513   
Zn       Zn     0.212750000000     0.750320000000     0.810140000000     0.416513   
Zn       Zn     0.787250000000     0.250320000000     0.689860000000     0.416513   
Zn       Zn     0.787250000000     0.749680000000     0.310140000000     0.416513   
H        H      0.598600000000     0.073400000000     0.244800000000     0.120472   
H        H      0.598600000000     0.926600000000     0.755200000000     0.120472   
H        H      0.401400000000     0.426600000000     0.744800000000     0.120472   
H        H      0.401400000000     0.573400000000     0.255200000000     0.120472   
H        H      0.254500000000     0.883700000000     0.265900000000     0.120472   
H        H      0.254500000000     0.116300000000     0.734100000000     0.120472   
H        H      0.745500000000     0.616300000000     0.765900000000     0.120472   
H        H      0.745500000000     0.383700000000     0.234100000000     0.120472   
H        H      0.444900000000     0.771600000000     0.288000000000     0.120472   
H        H      0.444900000000     0.228400000000     0.712000000000     0.120472   
H        H      0.555100000000     0.728400000000     0.788000000000     0.120472   
H        H      0.555100000000     0.271600000000     0.212000000000     0.120472   
H        H      0.959400000000     0.161300000000     0.909200000000     0.120472   
H        H      0.959400000000     0.838700000000     0.090800000000     0.120472   
H        H      0.040600000000     0.338700000000     0.409200000000     0.120472   
H        H      0.040600000000     0.661300000000     0.590800000000     0.120472   
H        H      0.260900000000     0.375200000000     0.898400000000     0.120472   
H        H      0.260900000000     0.624800000000     0.101600000000     0.120472   
H        H      0.739100000000     0.124800000000     0.398400000000     0.120472   
H        H      0.739100000000     0.875200000000     0.601600000000     0.120472   
H        H      0.290800000000     0.364100000000     0.042800000000     0.120472   
H        H      0.290800000000     0.635900000000     0.957200000000     0.120472   
H        H      0.709200000000     0.135900000000     0.542800000000     0.120472   
H        H      0.709200000000     0.864100000000     0.457200000000     0.120472   
H        H      0.901800000000     0.920100000000     0.277000000000     0.120472   
H        H      0.901800000000     0.079900000000     0.723000000000     0.120472   
H        H      0.098200000000     0.579900000000     0.777000000000     0.120472   
H        H      0.098200000000     0.420100000000     0.223000000000     0.120472   
H        H      0.862600000000     0.019200000000     0.258900000000     0.120472   
H        H      0.862600000000     0.980800000000     0.741100000000     0.120472   
H        H      0.137400000000     0.480800000000     0.758900000000     0.120472   
H        H      0.137400000000     0.519200000000     0.241100000000     0.120472   
H        H      0.000700000000     0.129400000000     0.125900000000     0.120472   
H        H      0.000700000000     0.870600000000     0.874100000000     0.120472   
H        H      0.999300000000     0.370600000000     0.625900000000     0.120472   
H        H      0.999300000000     0.629400000000     0.374100000000     0.120472   
H        H      0.919400000000     0.093400000000     0.047300000000     0.120472   
H        H      0.919400000000     0.906600000000     0.952700000000     0.120472   
H        H      0.080600000000     0.406600000000     0.547300000000     0.120472   
H        H      0.080600000000     0.593400000000     0.452700000000     0.120472   
C        C      0.680300000000     0.942500000000     0.269000000000     0.0546844  
C        C      0.680300000000     0.057500000000     0.731000000000     0.0546844  
C        C      0.319700000000     0.557500000000     0.769000000000     0.0546844  
C        C      0.319700000000     0.442500000000     0.231000000000     0.0546844  
C        C      0.565700000000     0.012600000000     0.254200000000     0.0546844  
C        C      0.565700000000     0.987400000000     0.745800000000     0.0546844  
C        C      0.434300000000     0.487400000000     0.754200000000     0.0546844  
C        C      0.434300000000     0.512600000000     0.245800000000     0.0546844  
C        C      0.408100000000     0.992200000000     0.253500000000     0.0546844  
C        C      0.408100000000     0.007800000000     0.746500000000     0.0546844  
C        C      0.591900000000     0.507800000000     0.753500000000     0.0546844  
C        C      0.591900000000     0.492200000000     0.246500000000     0.0546844  
C        C      0.361400000000     0.899800000000     0.266600000000     0.0546844  
C        C      0.361400000000     0.100200000000     0.733400000000     0.0546844  
C        C      0.638600000000     0.600200000000     0.766600000000     0.0546844  
C        C      0.638600000000     0.399800000000     0.233400000000     0.0546844  
C        C      0.476100000000     0.833100000000     0.280500000000     0.0546844  
C        C      0.476100000000     0.166900000000     0.719500000000     0.0546844  
C        C      0.523900000000     0.666900000000     0.780500000000     0.0546844  
C        C      0.523900000000     0.333100000000     0.219500000000     0.0546844  
C        C      0.289700000000     0.066200000000     0.235100000000     0.0546844  
C        C      0.289700000000     0.933800000000     0.764900000000     0.0546844  
C        C      0.710300000000     0.433800000000     0.735100000000     0.0546844  
C        C      0.710300000000     0.566200000000     0.264900000000     0.0546844  
C        C      0.055100000000     0.195900000000     0.024100000000     0.0546844  
C        C      0.055100000000     0.804100000000     0.975900000000     0.0546844  
C        C      0.944900000000     0.304100000000     0.524100000000     0.0546844  
C        C      0.944900000000     0.695900000000     0.475900000000     0.0546844  
C        C      0.029900000000     0.201900000000     0.936000000000     0.0546844  
C        C      0.029900000000     0.798100000000     0.064000000000     0.0546844  
C        C      0.970100000000     0.298100000000     0.436000000000     0.0546844  
C        C      0.970100000000     0.701900000000     0.564000000000     0.0546844  
C        C      0.108300000000     0.267400000000     0.888200000000     0.0546844  
C        C      0.108300000000     0.732600000000     0.111800000000     0.0546844  
C        C      0.891700000000     0.232600000000     0.388200000000     0.0546844  
C        C      0.891700000000     0.767400000000     0.611800000000     0.0546844  
C        C      0.207700000000     0.329300000000     0.929300000000     0.0546844  
C        C      0.207700000000     0.670700000000     0.070700000000     0.0546844  
C        C      0.792300000000     0.170700000000     0.429300000000     0.0546844  
C        C      0.792300000000     0.829300000000     0.570700000000     0.0546844  
C        C      0.225400000000     0.321300000000     0.015100000000     0.0546844  
C        C      0.225400000000     0.678700000000     0.984900000000     0.0546844  
C        C      0.774600000000     0.178700000000     0.515100000000     0.0546844  
C        C      0.774600000000     0.821300000000     0.484900000000     0.0546844  
C        C      0.077200000000     0.275500000000     0.791600000000     0.0546844  
C        C      0.077200000000     0.724500000000     0.208400000000     0.0546844  
C        C      0.922800000000     0.224500000000     0.291600000000     0.0546844  
C        C      0.922800000000     0.775500000000     0.708400000000     0.0546844  
N        N      0.634200000000     0.854400000000     0.283600000000    -0.283748   
N        N      0.634200000000     0.145600000000     0.716400000000    -0.283748   
N        N      0.365800000000     0.645600000000     0.783600000000    -0.283748   
N        N      0.365800000000     0.354400000000     0.216400000000    -0.283748   
N        N      0.832400000000     0.963000000000     0.268200000000    -0.283748   
N        N      0.832400000000     0.037000000000     0.731800000000    -0.283748   
N        N      0.167600000000     0.537000000000     0.768200000000    -0.283748   
N        N      0.167600000000     0.463000000000     0.231800000000    -0.283748   
N        N      0.156500000000     0.257000000000     0.063100000000    -0.283748   
N        N      0.156500000000     0.743000000000     0.936900000000    -0.283748   
N        N      0.843500000000     0.243000000000     0.563100000000    -0.283748   
N        N      0.843500000000     0.757000000000     0.436900000000    -0.283748   
N        N      0.983400000000     0.132200000000     0.071200000000    -0.283748   
N        N      0.983400000000     0.867800000000     0.928800000000    -0.283748   
N        N      0.016600000000     0.367800000000     0.571200000000    -0.283748   
N        N      0.016600000000     0.632200000000     0.428800000000    -0.283748   
O        O      0.144800000000     0.047100000000     0.243500000000    -0.285613   
O        O      0.144800000000     0.952900000000     0.756500000000    -0.285613   
O        O      0.855200000000     0.452900000000     0.743500000000    -0.285613   
O        O      0.855200000000     0.547100000000     0.256500000000    -0.285613   
O        O      0.343500000000     0.142800000000     0.213400000000    -0.285613   
O        O      0.343500000000     0.857200000000     0.786600000000    -0.285613   
O        O      0.656500000000     0.357200000000     0.713400000000    -0.285613   
O        O      0.656500000000     0.642800000000     0.286600000000    -0.285613   
O        O      0.961500000000     0.222600000000     0.765900000000    -0.285613   
O        O      0.961500000000     0.777400000000     0.234100000000    -0.285613   
O        O      0.038500000000     0.277400000000     0.265900000000    -0.285613   
O        O      0.038500000000     0.722600000000     0.734100000000    -0.285613   
O        O      0.152700000000     0.327900000000     0.747500000000    -0.285613   
O        O      0.152700000000     0.672100000000     0.252500000000    -0.285613   
O        O      0.847300000000     0.172100000000     0.247500000000    -0.285613   
O        O      0.847300000000     0.827900000000     0.752500000000    -0.285613   


