data_SARNOQ_original

_audit_creation_method RASPA-1.0
_audit_creation_date 2022-1-30
_audit_author_name 'Felipe Lopes de Oliveira <felipe.lopes.oliveira@ibm.com>'

_cell_length_a    14.6206
_cell_length_b    14.6206
_cell_length_c    14.6206
_cell_angle_alpha 109.38
_cell_angle_beta  109.38
_cell_angle_gamma 109.38
_cell_volume      2413.97

_symmetry_cell_setting          triclinic
_symmetry_space_group_name_Hall 'P 1'
_symmetry_space_group_name_H-M  'P 1'
_symmetry_Int_Tables_number     1

_symmetry_equiv_pos_as_xyz 'x,y,z'

loop_
_atom_site_label
_atom_site_type_symbol
_atom_site_fract_x
_atom_site_fract_y
_atom_site_fract_z
_atom_site_charge
Zn       Zn     0.199220000000     0.449640000000     0.693520000000     0.391583   
Zn       Zn     0.693520000000     0.199220000000     0.449640000000     0.391583   
Zn       Zn     0.449640000000     0.693520000000     0.199220000000     0.391583   
Zn       Zn     0.800780000000     0.550360000000     0.306480000000     0.391583   
Zn       Zn     0.306480000000     0.800780000000     0.550360000000     0.391583   
Zn       Zn     0.550360000000     0.306480000000     0.800780000000     0.391583   
H        H      0.692800000000     0.694300000000     0.060000000000     0.143769   
H        H      0.060000000000     0.692800000000     0.694300000000     0.143769   
H        H      0.694300000000     0.060000000000     0.692800000000     0.143769   
H        H      0.307200000000     0.305700000000     0.940000000000     0.143769   
H        H      0.940000000000     0.307200000000     0.305700000000     0.143769   
H        H      0.305700000000     0.940000000000     0.307200000000     0.143769   
C        C      0.449520000000     0.582760000000     0.949520000000     0.0833801  
C        C      0.471430000000     0.516280000000     0.875890000000     0.0833801  
C        C      0.346090000000     0.570770000000     0.947940000000     0.0833801  
C        C      0.398480000000     0.411870000000     0.770050000000     0.0833801  
C        C      0.949520000000     0.449520000000     0.582760000000     0.0833801  
C        C      0.875890000000     0.471430000000     0.516280000000     0.0833801  
C        C      0.947940000000     0.346090000000     0.570770000000     0.0833801  
C        C      0.770050000000     0.398480000000     0.411870000000     0.0833801  
C        C      0.582760000000     0.949520000000     0.449520000000     0.0833801  
C        C      0.516280000000     0.875890000000     0.471430000000     0.0833801  
C        C      0.570770000000     0.947940000000     0.346090000000     0.0833801  
C        C      0.411870000000     0.770050000000     0.398480000000     0.0833801  
C        C      0.550480000000     0.417240000000     0.050480000000     0.0833801  
C        C      0.528570000000     0.483720000000     0.124110000000     0.0833801  
C        C      0.653910000000     0.429230000000     0.052060000000     0.0833801  
C        C      0.601520000000     0.588130000000     0.229950000000     0.0833801  
C        C      0.050480000000     0.550480000000     0.417240000000     0.0833801  
C        C      0.124110000000     0.528570000000     0.483720000000     0.0833801  
C        C      0.052060000000     0.653910000000     0.429230000000     0.0833801  
C        C      0.229950000000     0.601520000000     0.588130000000     0.0833801  
C        C      0.417240000000     0.050480000000     0.550480000000     0.0833801  
C        C      0.483720000000     0.124110000000     0.528570000000     0.0833801  
C        C      0.429230000000     0.052060000000     0.653910000000     0.0833801  
C        C      0.588130000000     0.229950000000     0.601520000000     0.0833801  
N        N      0.546510000000     0.667070000000     0.038220000000    -0.0789884  
N        N      0.622300000000     0.649900000000     0.015300000000    -0.0789884  
N        N      0.582290000000     0.561070000000     0.920340000000    -0.0789884  
N        N      0.427200000000     0.335210000000     0.734590000000    -0.0789884  
N        N      0.340500000000     0.253800000000     0.631800000000    -0.0789884  
N        N      0.262700000000     0.279700000000     0.606900000000    -0.0789884  
N        N      0.296330000000     0.378940000000     0.693030000000    -0.0789884  
N        N      0.337550000000     0.609370000000     0.038780000000    -0.0789884  
N        N      0.229730000000     0.581460000000     0.003210000000    -0.0789884  
N        N      0.175010000000     0.528360000000     0.895330000000    -0.0789884  
N        N      0.247040000000     0.519780000000     0.857380000000    -0.0789884  
N        N      0.038220000000     0.546510000000     0.667070000000    -0.0789884  
N        N      0.015300000000     0.622300000000     0.649900000000    -0.0789884  
N        N      0.920340000000     0.582290000000     0.561070000000    -0.0789884  
N        N      0.734590000000     0.427200000000     0.335210000000    -0.0789884  
N        N      0.631800000000     0.340500000000     0.253800000000    -0.0789884  
N        N      0.606900000000     0.262700000000     0.279700000000    -0.0789884  
N        N      0.693030000000     0.296330000000     0.378940000000    -0.0789884  
N        N      0.038780000000     0.337550000000     0.609370000000    -0.0789884  
N        N      0.003210000000     0.229730000000     0.581460000000    -0.0789884  
N        N      0.895330000000     0.175010000000     0.528360000000    -0.0789884  
N        N      0.857380000000     0.247040000000     0.519780000000    -0.0789884  
N        N      0.667070000000     0.038220000000     0.546510000000    -0.0789884  
N        N      0.649900000000     0.015300000000     0.622300000000    -0.0789884  
N        N      0.561070000000     0.920340000000     0.582290000000    -0.0789884  
N        N      0.335210000000     0.734590000000     0.427200000000    -0.0789884  
N        N      0.253800000000     0.631800000000     0.340500000000    -0.0789884  
N        N      0.279700000000     0.606900000000     0.262700000000    -0.0789884  
N        N      0.378940000000     0.693030000000     0.296330000000    -0.0789884  
N        N      0.609370000000     0.038780000000     0.337550000000    -0.0789884  
N        N      0.581460000000     0.003210000000     0.229730000000    -0.0789884  
N        N      0.528360000000     0.895330000000     0.175010000000    -0.0789884  
N        N      0.519780000000     0.857380000000     0.247040000000    -0.0789884  
N        N      0.453490000000     0.332930000000     0.961780000000    -0.0789884  
N        N      0.377700000000     0.350100000000     0.984700000000    -0.0789884  
N        N      0.417710000000     0.438930000000     0.079660000000    -0.0789884  
N        N      0.572800000000     0.664790000000     0.265410000000    -0.0789884  
N        N      0.659500000000     0.746200000000     0.368200000000    -0.0789884  
N        N      0.737300000000     0.720300000000     0.393100000000    -0.0789884  
N        N      0.703670000000     0.621060000000     0.306970000000    -0.0789884  
N        N      0.662450000000     0.390630000000     0.961220000000    -0.0789884  
N        N      0.770270000000     0.418540000000     0.996790000000    -0.0789884  
N        N      0.824990000000     0.471640000000     0.104670000000    -0.0789884  
N        N      0.752960000000     0.480220000000     0.142620000000    -0.0789884  
N        N      0.961780000000     0.453490000000     0.332930000000    -0.0789884  
N        N      0.984700000000     0.377700000000     0.350100000000    -0.0789884  
N        N      0.079660000000     0.417710000000     0.438930000000    -0.0789884  
N        N      0.265410000000     0.572800000000     0.664790000000    -0.0789884  
N        N      0.368200000000     0.659500000000     0.746200000000    -0.0789884  
N        N      0.393100000000     0.737300000000     0.720300000000    -0.0789884  
N        N      0.306970000000     0.703670000000     0.621060000000    -0.0789884  
N        N      0.961220000000     0.662450000000     0.390630000000    -0.0789884  
N        N      0.996790000000     0.770270000000     0.418540000000    -0.0789884  
N        N      0.104670000000     0.824990000000     0.471640000000    -0.0789884  
N        N      0.142620000000     0.752960000000     0.480220000000    -0.0789884  
N        N      0.332930000000     0.961780000000     0.453490000000    -0.0789884  
N        N      0.350100000000     0.984700000000     0.377700000000    -0.0789884  
N        N      0.438930000000     0.079660000000     0.417710000000    -0.0789884  
N        N      0.664790000000     0.265410000000     0.572800000000    -0.0789884  
N        N      0.746200000000     0.368200000000     0.659500000000    -0.0789884  
N        N      0.720300000000     0.393100000000     0.737300000000    -0.0789884  
N        N      0.621060000000     0.306970000000     0.703670000000    -0.0789884  
N        N      0.390630000000     0.961220000000     0.662450000000    -0.0789884  
N        N      0.418540000000     0.996790000000     0.770270000000    -0.0789884  
N        N      0.471640000000     0.104670000000     0.824990000000    -0.0789884  
N        N      0.480220000000     0.142620000000     0.752960000000    -0.0789884  


