data_SEFBOV_original

_audit_creation_method RASPA-1.0
_audit_creation_date 2022-1-31
_audit_author_name 'Felipe Lopes de Oliveira <felipe.lopes.oliveira@ibm.com>'

_cell_length_a    10.299
_cell_length_b    11.824
_cell_length_c    20.372
_cell_angle_alpha 90
_cell_angle_beta  90
_cell_angle_gamma 90
_cell_volume      2480.81

_symmetry_cell_setting          triclinic
_symmetry_space_group_name_Hall 'P 1'
_symmetry_space_group_name_H-M  'P 1'
_symmetry_Int_Tables_number     1

_symmetry_equiv_pos_as_xyz 'x,y,z'

loop_
_atom_site_label
_atom_site_type_symbol
_atom_site_fract_x
_atom_site_fract_y
_atom_site_fract_z
_atom_site_charge
Zn       Zn     0.037990000000     0.919880000000     0.008650000000     0.474927   
Zn       Zn     0.351200000000     0.824530000000     0.007790000000     0.474927   
Zn       Zn     0.462010000000     0.080120000000     0.508650000000     0.474927   
Zn       Zn     0.148800000000     0.175470000000     0.507790000000     0.474927   
Zn       Zn     0.962010000000     0.419880000000     0.491350000000     0.474927   
Zn       Zn     0.648800000000     0.324530000000     0.492210000000     0.474927   
Zn       Zn     0.537990000000     0.580120000000     0.991350000000     0.474927   
Zn       Zn     0.851200000000     0.675470000000     0.992210000000     0.474927   
H        H      0.258900000000     0.528600000000     0.989800000000     0.105572   
H        H      0.344600000000     0.549100000000     0.882200000000     0.105572   
H        H      0.190900000000     0.550600000000     0.879500000000     0.105572   
H        H      0.269700000000     0.665300000000     0.874000000000     0.105572   
H        H      0.046300000000     0.009200000000     0.210300000000     0.105572   
H        H      0.406800000000     0.888000000000     0.209100000000     0.105572   
H        H      0.425700000000     0.928900000000     0.317600000000     0.105572   
H        H      0.068200000000     0.048200000000     0.320700000000     0.105572   
H        H      0.241100000000     0.471400000000     0.489800000000     0.105572   
H        H      0.155400000000     0.450900000000     0.382200000000     0.105572   
H        H      0.309100000000     0.449400000000     0.379500000000     0.105572   
H        H      0.230300000000     0.334700000000     0.374000000000     0.105572   
H        H      0.453700000000     0.990800000000     0.710300000000     0.105572   
H        H      0.093200000000     0.112000000000     0.709100000000     0.105572   
H        H      0.074300000000     0.071100000000     0.817600000000     0.105572   
H        H      0.431800000000     0.951800000000     0.820700000000     0.105572   
H        H      0.741100000000     0.028600000000     0.510200000000     0.105572   
H        H      0.655400000000     0.049100000000     0.617800000000     0.105572   
H        H      0.809100000000     0.050600000000     0.620500000000     0.105572   
H        H      0.730300000000     0.165300000000     0.626000000000     0.105572   
H        H      0.953700000000     0.509200000000     0.289700000000     0.105572   
H        H      0.593200000000     0.388000000000     0.290900000000     0.105572   
H        H      0.574300000000     0.428900000000     0.182400000000     0.105572   
H        H      0.931800000000     0.548200000000     0.179300000000     0.105572   
H        H      0.758900000000     0.971400000000     0.010200000000     0.105572   
H        H      0.844600000000     0.950900000000     0.117800000000     0.105572   
H        H      0.690900000000     0.949400000000     0.120500000000     0.105572   
H        H      0.769700000000     0.834700000000     0.126000000000     0.105572   
H        H      0.546300000000     0.490800000000     0.789700000000     0.105572   
H        H      0.906800000000     0.612000000000     0.790900000000     0.105572   
H        H      0.925700000000     0.571100000000     0.682400000000     0.105572   
H        H      0.568200000000     0.451800000000     0.679300000000     0.105572   
C        C      0.140500000000     0.670000000000     0.986800000000     0.0241968  
C        C      0.262400000000     0.604300000000     0.969100000000     0.0241968  
C        C      0.267400000000     0.591100000000     0.894300000000     0.0241968  
C        C      0.216800000000     0.933900000000     0.122500000000     0.0241968  
C        C      0.232100000000     0.962800000000     0.193500000000     0.0241968  
C        C      0.127800000000     0.000500000000     0.230400000000     0.0241968  
C        C      0.340600000000     0.929300000000     0.229900000000     0.0241968  
C        C      0.274000000000     0.050300000000     0.397400000000     0.0241968  
C        C      0.259300000000     0.017800000000     0.325900000000     0.0241968  
C        C      0.352800000000     0.954600000000     0.294200000000     0.0241968  
C        C      0.141100000000     0.025600000000     0.296200000000     0.0241968  
C        C      0.359500000000     0.330000000000     0.486800000000     0.0241968  
C        C      0.237600000000     0.395700000000     0.469100000000     0.0241968  
C        C      0.232600000000     0.408900000000     0.394300000000     0.0241968  
C        C      0.283200000000     0.066100000000     0.622500000000     0.0241968  
C        C      0.267900000000     0.037200000000     0.693500000000     0.0241968  
C        C      0.372200000000     0.999500000000     0.730400000000     0.0241968  
C        C      0.159400000000     0.070700000000     0.729900000000     0.0241968  
C        C      0.226000000000     0.949700000000     0.897400000000     0.0241968  
C        C      0.240700000000     0.982200000000     0.825900000000     0.0241968  
C        C      0.147200000000     0.045400000000     0.794200000000     0.0241968  
C        C      0.358900000000     0.974400000000     0.796200000000     0.0241968  
C        C      0.859500000000     0.170000000000     0.513200000000     0.0241968  
C        C      0.737600000000     0.104300000000     0.530900000000     0.0241968  
C        C      0.732600000000     0.091100000000     0.605700000000     0.0241968  
C        C      0.783200000000     0.433900000000     0.377500000000     0.0241968  
C        C      0.767900000000     0.462800000000     0.306500000000     0.0241968  
C        C      0.872200000000     0.500500000000     0.269600000000     0.0241968  
C        C      0.659400000000     0.429300000000     0.270100000000     0.0241968  
C        C      0.726000000000     0.550300000000     0.102600000000     0.0241968  
C        C      0.740700000000     0.517800000000     0.174100000000     0.0241968  
C        C      0.647200000000     0.454600000000     0.205800000000     0.0241968  
C        C      0.858900000000     0.525600000000     0.203800000000     0.0241968  
C        C      0.640500000000     0.830000000000     0.013200000000     0.0241968  
C        C      0.762400000000     0.895700000000     0.030900000000     0.0241968  
C        C      0.767400000000     0.908900000000     0.105700000000     0.0241968  
C        C      0.716800000000     0.566100000000     0.877500000000     0.0241968  
C        C      0.732100000000     0.537200000000     0.806500000000     0.0241968  
C        C      0.627800000000     0.499500000000     0.769600000000     0.0241968  
C        C      0.840600000000     0.570700000000     0.770100000000     0.0241968  
C        C      0.774000000000     0.449700000000     0.602600000000     0.0241968  
C        C      0.759300000000     0.482200000000     0.674100000000     0.0241968  
C        C      0.852800000000     0.545400000000     0.705800000000     0.0241968  
C        C      0.641100000000     0.474400000000     0.703800000000     0.0241968  
O        O      0.153200000000     0.770700000000     0.006090000000    -0.294371   
O        O      0.374600000000     0.662000000000     0.991160000000    -0.294371   
O        O      0.033700000000     0.620000000000     0.980800000000    -0.294371   
O        O      0.110900000000     0.954500000000     0.095920000000    -0.294371   
O        O      0.315400000000     0.891300000000     0.095000000000    -0.294371   
O        O      0.385800000000     0.040900000000     0.421690000000    -0.294371   
O        O      0.173500000000     0.082500000000     0.427270000000    -0.294371   
O        O      0.346800000000     0.229300000000     0.506090000000    -0.294371   
O        O      0.125400000000     0.338000000000     0.491160000000    -0.294371   
O        O      0.466300000000     0.380000000000     0.480800000000    -0.294371   
O        O      0.389100000000     0.045500000000     0.595920000000    -0.294371   
O        O      0.184600000000     0.108700000000     0.595000000000    -0.294371   
O        O      0.114200000000     0.959100000000     0.921690000000    -0.294371   
O        O      0.326500000000     0.917500000000     0.927270000000    -0.294371   
O        O      0.846800000000     0.270700000000     0.493910000000    -0.294371   
O        O      0.625400000000     0.162000000000     0.508840000000    -0.294371   
O        O      0.966300000000     0.120000000000     0.519200000000    -0.294371   
O        O      0.889100000000     0.454500000000     0.404080000000    -0.294371   
O        O      0.684600000000     0.391300000000     0.405000000000    -0.294371   
O        O      0.614200000000     0.540900000000     0.078310000000    -0.294371   
O        O      0.826500000000     0.582500000000     0.072730000000    -0.294371   
O        O      0.653200000000     0.729300000000     0.993910000000    -0.294371   
O        O      0.874600000000     0.838000000000     0.008840000000    -0.294371   
O        O      0.533700000000     0.880000000000     0.019200000000    -0.294371   
O        O      0.610900000000     0.545500000000     0.904080000000    -0.294371   
O        O      0.815400000000     0.608700000000     0.905000000000    -0.294371   
O        O      0.885800000000     0.459100000000     0.578310000000    -0.294371   
O        O      0.673500000000     0.417500000000     0.572730000000    -0.294371   


