data_SENWEP_original

_audit_creation_method RASPA-1.0
_audit_creation_date 2022-1-28
_audit_author_name 'Felipe Lopes de Oliveira <felipe.lopes.oliveira@ibm.com>'

_cell_length_a    14.1069
_cell_length_b    14.1069
_cell_length_c    14.1069
_cell_angle_alpha 90
_cell_angle_beta  90
_cell_angle_gamma 90
_cell_volume      2807.34

_symmetry_cell_setting          triclinic
_symmetry_space_group_name_Hall 'P 1'
_symmetry_space_group_name_H-M  'P 1'
_symmetry_Int_Tables_number     1

_symmetry_equiv_pos_as_xyz 'x,y,z'

loop_
_atom_site_label
_atom_site_type_symbol
_atom_site_fract_x
_atom_site_fract_y
_atom_site_fract_z
_atom_site_charge
Zn       Zn     0.979920000000     0.979920000000     0.979920000000     0.468334   
Zn       Zn     0.831780000000     0.831780000000     0.831780000000     0.468334   
Zn       Zn     0.520080000000     0.020080000000     0.479920000000     0.468334   
Zn       Zn     0.668220000000     0.168220000000     0.331780000000     0.468334   
Zn       Zn     0.020080000000     0.479920000000     0.520080000000     0.468334   
Zn       Zn     0.168220000000     0.331780000000     0.668220000000     0.468334   
Zn       Zn     0.479920000000     0.520080000000     0.020080000000     0.468334   
Zn       Zn     0.331780000000     0.668220000000     0.168220000000     0.468334   
H        H      0.960900000000     0.200100000000     0.766700000000     0.0622415  
H        H      0.539100000000     0.799900000000     0.266700000000     0.0622415  
H        H      0.039100000000     0.700100000000     0.733300000000     0.0622415  
H        H      0.460900000000     0.299900000000     0.233300000000     0.0622415  
H        H      0.766700000000     0.960900000000     0.200100000000     0.0622415  
H        H      0.266700000000     0.539100000000     0.799900000000     0.0622415  
H        H      0.733300000000     0.039100000000     0.700100000000     0.0622415  
H        H      0.233300000000     0.460900000000     0.299900000000     0.0622415  
H        H      0.200100000000     0.766700000000     0.960900000000     0.0622415  
H        H      0.799900000000     0.266700000000     0.539100000000     0.0622415  
H        H      0.700100000000     0.733300000000     0.039100000000     0.0622415  
H        H      0.299900000000     0.233300000000     0.460900000000     0.0622415  
C        C      0.851300000000     0.110300000000     0.745400000000     0.103062   
C        C      0.908400000000     0.186800000000     0.726600000000     0.103062   
C        C      0.871900000000     0.045000000000     0.827100000000     0.103062   
C        C      0.648700000000     0.889700000000     0.245400000000     0.103062   
C        C      0.591600000000     0.813200000000     0.226600000000     0.103062   
C        C      0.628100000000     0.955000000000     0.327100000000     0.103062   
C        C      0.148700000000     0.610300000000     0.754600000000     0.103062   
C        C      0.091600000000     0.686800000000     0.773400000000     0.103062   
C        C      0.128100000000     0.545000000000     0.672900000000     0.103062   
C        C      0.351300000000     0.389700000000     0.254600000000     0.103062   
C        C      0.408400000000     0.313200000000     0.273400000000     0.103062   
C        C      0.371900000000     0.455000000000     0.172900000000     0.103062   
C        C      0.745400000000     0.851300000000     0.110300000000     0.103062   
C        C      0.726600000000     0.908400000000     0.186800000000     0.103062   
C        C      0.827100000000     0.871900000000     0.045000000000     0.103062   
C        C      0.245400000000     0.648700000000     0.889700000000     0.103062   
C        C      0.226600000000     0.591600000000     0.813200000000     0.103062   
C        C      0.327100000000     0.628100000000     0.955000000000     0.103062   
C        C      0.754600000000     0.148700000000     0.610300000000     0.103062   
C        C      0.773400000000     0.091600000000     0.686800000000     0.103062   
C        C      0.672900000000     0.128100000000     0.545000000000     0.103062   
C        C      0.254600000000     0.351300000000     0.389700000000     0.103062   
C        C      0.273400000000     0.408400000000     0.313200000000     0.103062   
C        C      0.172900000000     0.371900000000     0.455000000000     0.103062   
C        C      0.110300000000     0.745400000000     0.851300000000     0.103062   
C        C      0.186800000000     0.726600000000     0.908400000000     0.103062   
C        C      0.045000000000     0.827100000000     0.871900000000     0.103062   
C        C      0.889700000000     0.245400000000     0.648700000000     0.103062   
C        C      0.813200000000     0.226600000000     0.591600000000     0.103062   
C        C      0.955000000000     0.327100000000     0.628100000000     0.103062   
C        C      0.610300000000     0.754600000000     0.148700000000     0.103062   
C        C      0.686800000000     0.773400000000     0.091600000000     0.103062   
C        C      0.545000000000     0.672900000000     0.128100000000     0.103062   
C        C      0.389700000000     0.254600000000     0.351300000000     0.103062   
C        C      0.313200000000     0.273400000000     0.408400000000     0.103062   
C        C      0.455000000000     0.172900000000     0.371900000000     0.103062   
N        N      0.090000000000     0.029000000000     0.138700000000     0.04704    
N        N      0.410000000000     0.971000000000     0.638700000000     0.04704    
N        N      0.910000000000     0.529000000000     0.361300000000     0.04704    
N        N      0.590000000000     0.471000000000     0.861300000000     0.04704    
N        N      0.138700000000     0.090000000000     0.029000000000     0.04704    
N        N      0.638700000000     0.410000000000     0.971000000000     0.04704    
N        N      0.361300000000     0.910000000000     0.529000000000     0.04704    
N        N      0.861300000000     0.590000000000     0.471000000000     0.04704    
N        N      0.029000000000     0.138700000000     0.090000000000     0.04704    
N        N      0.971000000000     0.638700000000     0.410000000000     0.04704    
N        N      0.529000000000     0.361300000000     0.910000000000     0.04704    
N        N      0.471000000000     0.861300000000     0.590000000000     0.04704    
O        O      0.945100000000     0.063400000000     0.875300000000    -0.146138   
O        O      0.817500000000     0.977600000000     0.842700000000    -0.146138   
O        O      0.076000000000     0.049000000000     0.057900000000    -0.146138   
O        O      0.120000000000     0.077000000000     0.202000000000    -0.146138   
O        O      0.069000000000     0.940000000000     0.159000000000    -0.146138   
O        O      0.554900000000     0.936600000000     0.375300000000    -0.146138   
O        O      0.682500000000     0.022400000000     0.342700000000    -0.146138   
O        O      0.424000000000     0.951000000000     0.557900000000    -0.146138   
O        O      0.380000000000     0.923000000000     0.702000000000    -0.146138   
O        O      0.431000000000     0.060000000000     0.659000000000    -0.146138   
O        O      0.054900000000     0.563400000000     0.624700000000    -0.146138   
O        O      0.182500000000     0.477600000000     0.657300000000    -0.146138   
O        O      0.924000000000     0.549000000000     0.442100000000    -0.146138   
O        O      0.880000000000     0.577000000000     0.298000000000    -0.146138   
O        O      0.931000000000     0.440000000000     0.341000000000    -0.146138   
O        O      0.445100000000     0.436600000000     0.124700000000    -0.146138   
O        O      0.317500000000     0.522400000000     0.157300000000    -0.146138   
O        O      0.576000000000     0.451000000000     0.942100000000    -0.146138   
O        O      0.620000000000     0.423000000000     0.798000000000    -0.146138   
O        O      0.569000000000     0.560000000000     0.841000000000    -0.146138   
O        O      0.875300000000     0.945100000000     0.063400000000    -0.146138   
O        O      0.842700000000     0.817500000000     0.977600000000    -0.146138   
O        O      0.057900000000     0.076000000000     0.049000000000    -0.146138   
O        O      0.202000000000     0.120000000000     0.077000000000    -0.146138   
O        O      0.159000000000     0.069000000000     0.940000000000    -0.146138   
O        O      0.375300000000     0.554900000000     0.936600000000    -0.146138   
O        O      0.342700000000     0.682500000000     0.022400000000    -0.146138   
O        O      0.557900000000     0.424000000000     0.951000000000    -0.146138   
O        O      0.702000000000     0.380000000000     0.923000000000    -0.146138   
O        O      0.659000000000     0.431000000000     0.060000000000    -0.146138   
O        O      0.624700000000     0.054900000000     0.563400000000    -0.146138   
O        O      0.657300000000     0.182500000000     0.477600000000    -0.146138   
O        O      0.442100000000     0.924000000000     0.549000000000    -0.146138   
O        O      0.298000000000     0.880000000000     0.577000000000    -0.146138   
O        O      0.341000000000     0.931000000000     0.440000000000    -0.146138   
O        O      0.124700000000     0.445100000000     0.436600000000    -0.146138   
O        O      0.157300000000     0.317500000000     0.522400000000    -0.146138   
O        O      0.942100000000     0.576000000000     0.451000000000    -0.146138   
O        O      0.798000000000     0.620000000000     0.423000000000    -0.146138   
O        O      0.841000000000     0.569000000000     0.560000000000    -0.146138   
O        O      0.063400000000     0.875300000000     0.945100000000    -0.146138   
O        O      0.977600000000     0.842700000000     0.817500000000    -0.146138   
O        O      0.049000000000     0.057900000000     0.076000000000    -0.146138   
O        O      0.077000000000     0.202000000000     0.120000000000    -0.146138   
O        O      0.940000000000     0.159000000000     0.069000000000    -0.146138   
O        O      0.936600000000     0.375300000000     0.554900000000    -0.146138   
O        O      0.022400000000     0.342700000000     0.682500000000    -0.146138   
O        O      0.951000000000     0.557900000000     0.424000000000    -0.146138   
O        O      0.923000000000     0.702000000000     0.380000000000    -0.146138   
O        O      0.060000000000     0.659000000000     0.431000000000    -0.146138   
O        O      0.563400000000     0.624700000000     0.054900000000    -0.146138   
O        O      0.477600000000     0.657300000000     0.182500000000    -0.146138   
O        O      0.549000000000     0.442100000000     0.924000000000    -0.146138   
O        O      0.577000000000     0.298000000000     0.880000000000    -0.146138   
O        O      0.440000000000     0.341000000000     0.931000000000    -0.146138   
O        O      0.436600000000     0.124700000000     0.445100000000    -0.146138   
O        O      0.522400000000     0.157300000000     0.317500000000    -0.146138   
O        O      0.451000000000     0.942100000000     0.576000000000    -0.146138   
O        O      0.423000000000     0.798000000000     0.620000000000    -0.146138   
O        O      0.560000000000     0.841000000000     0.569000000000    -0.146138   


