data_SETQOZ_original

_audit_creation_method RASPA-1.0
_audit_creation_date 2022-1-30
_audit_author_name 'Felipe Lopes de Oliveira <felipe.lopes.oliveira@ibm.com>'

_cell_length_a    11.2638
_cell_length_b    11.2638
_cell_length_c    13.807
_cell_angle_alpha 107.519
_cell_angle_beta  107.519
_cell_angle_gamma 90.4792
_cell_volume      1583.54

_symmetry_cell_setting          triclinic
_symmetry_space_group_name_Hall 'P 1'
_symmetry_space_group_name_H-M  'P 1'
_symmetry_Int_Tables_number     1

_symmetry_equiv_pos_as_xyz 'x,y,z'

loop_
_atom_site_label
_atom_site_type_symbol
_atom_site_fract_x
_atom_site_fract_y
_atom_site_fract_z
_atom_site_charge
Fe       Fe     0.998960000000     0.001040000000     0.250000000000     1.08262    
Fe       Fe     0.001040000000     0.998960000000     0.750000000000     1.08262    
Fe       Fe     0.000000000000     0.000000000000     0.000000000000     1.08262    
Fe       Fe     0.000000000000     0.000000000000     0.500000000000     1.08262    
H        H      0.993820000000     0.608540000000     0.421120000000     0.0532147  
H        H      0.993440000000     0.388340000000     0.366130000000     0.0532147  
H        H      0.992970000000     0.390130000000     0.069790000000     0.0532147  
H        H      0.993350000000     0.610330000000     0.124790000000     0.0532147  
H        H      0.391460000000     0.006180000000     0.078880000000     0.0532147  
H        H      0.611660000000     0.006560000000     0.133870000000     0.0532147  
H        H      0.609870000000     0.007030000000     0.430210000000     0.0532147  
H        H      0.389670000000     0.006650000000     0.375210000000     0.0532147  
H        H      0.006180000000     0.391460000000     0.578880000000     0.0532147  
H        H      0.006560000000     0.611660000000     0.633870000000     0.0532147  
H        H      0.007030000000     0.609870000000     0.930210000000     0.0532147  
H        H      0.006650000000     0.389670000000     0.875210000000     0.0532147  
H        H      0.608540000000     0.993820000000     0.921120000000     0.0532147  
H        H      0.388340000000     0.993440000000     0.866130000000     0.0532147  
H        H      0.390130000000     0.992970000000     0.569790000000     0.0532147  
H        H      0.610330000000     0.993350000000     0.624790000000     0.0532147  
C        C      0.993610000000     0.628290000000     0.277660000000     0.0739668  
C        C      0.993640000000     0.563280000000     0.348330000000     0.0739668  
C        C      0.993420000000     0.434340000000     0.316120000000     0.0739668  
C        C      0.993170000000     0.370390000000     0.213250000000     0.0739668  
C        C      0.993140000000     0.435380000000     0.142590000000     0.0739668  
C        C      0.993370000000     0.564330000000     0.174790000000     0.0739668  
C        C      0.993850000000     0.765170000000     0.311850000000     0.0739668  
C        C      0.992930000000     0.233510000000     0.179070000000     0.0739668  
C        C      0.371710000000     0.006390000000     0.222340000000     0.0739668  
C        C      0.436720000000     0.006360000000     0.151670000000     0.0739668  
C        C      0.565660000000     0.006580000000     0.183880000000     0.0739668  
C        C      0.629610000000     0.006830000000     0.286750000000     0.0739668  
C        C      0.564620000000     0.006860000000     0.357410000000     0.0739668  
C        C      0.435670000000     0.006630000000     0.325210000000     0.0739668  
C        C      0.234830000000     0.006150000000     0.188150000000     0.0739668  
C        C      0.766490000000     0.007070000000     0.320930000000     0.0739668  
C        C      0.006390000000     0.371710000000     0.722340000000     0.0739668  
C        C      0.006360000000     0.436720000000     0.651670000000     0.0739668  
C        C      0.006580000000     0.565660000000     0.683880000000     0.0739668  
C        C      0.006830000000     0.629610000000     0.786750000000     0.0739668  
C        C      0.006860000000     0.564620000000     0.857410000000     0.0739668  
C        C      0.006630000000     0.435670000000     0.825210000000     0.0739668  
C        C      0.006150000000     0.234830000000     0.688150000000     0.0739668  
C        C      0.007070000000     0.766490000000     0.820930000000     0.0739668  
C        C      0.628290000000     0.993610000000     0.777660000000     0.0739668  
C        C      0.563280000000     0.993640000000     0.848330000000     0.0739668  
C        C      0.434340000000     0.993420000000     0.816120000000     0.0739668  
C        C      0.370390000000     0.993170000000     0.713250000000     0.0739668  
C        C      0.435380000000     0.993140000000     0.642590000000     0.0739668  
C        C      0.564330000000     0.993370000000     0.674790000000     0.0739668  
C        C      0.765170000000     0.993850000000     0.811850000000     0.0739668  
C        C      0.233510000000     0.992930000000     0.679070000000     0.0739668  
O        O      0.987060000000     0.823060000000     0.404100000000    -0.377442   
O        O      0.000860000000     0.825520000000     0.249130000000    -0.377442   
O        O      0.991500000000     0.173740000000     0.243470000000    -0.377442   
O        O      0.994150000000     0.175010000000     0.085130000000    -0.377442   
O        O      0.940170000000     0.934990000000     0.092350000000    -0.377442   
O        O      0.176940000000     0.012940000000     0.095900000000    -0.377442   
O        O      0.174480000000     0.999140000000     0.250870000000    -0.377442   
O        O      0.826260000000     0.008500000000     0.256530000000    -0.377442   
O        O      0.824990000000     0.005850000000     0.414870000000    -0.377442   
O        O      0.065010000000     0.059830000000     0.407650000000    -0.377442   
O        O      0.012940000000     0.176940000000     0.595900000000    -0.377442   
O        O      0.999140000000     0.174480000000     0.750870000000    -0.377442   
O        O      0.008500000000     0.826260000000     0.756530000000    -0.377442   
O        O      0.005850000000     0.824990000000     0.914870000000    -0.377442   
O        O      0.059830000000     0.065010000000     0.907650000000    -0.377442   
O        O      0.823060000000     0.987060000000     0.904100000000    -0.377442   
O        O      0.825520000000     0.000860000000     0.749130000000    -0.377442   
O        O      0.173740000000     0.991500000000     0.743470000000    -0.377442   
O        O      0.175010000000     0.994150000000     0.585130000000    -0.377442   
O        O      0.934990000000     0.940170000000     0.592350000000    -0.377442   


