data_SICDAL_original

_audit_creation_method RASPA-1.0
_audit_creation_date 2022-1-31
_audit_author_name 'Felipe Lopes de Oliveira <felipe.lopes.oliveira@ibm.com>'

_cell_length_a    6.6716
_cell_length_b    7.6444
_cell_length_c    10.5468
_cell_angle_alpha 111.248
_cell_angle_beta  102.922
_cell_angle_gamma 90
_cell_volume      486.681

_symmetry_cell_setting          triclinic
_symmetry_space_group_name_Hall 'P 1'
_symmetry_space_group_name_H-M  'P 1'
_symmetry_Int_Tables_number     1

_symmetry_equiv_pos_as_xyz 'x,y,z'

loop_
_atom_site_label
_atom_site_type_symbol
_atom_site_fract_x
_atom_site_fract_y
_atom_site_fract_z
_atom_site_charge
Ga       Ga     0.426000000000     0.112200000000     0.224000000000     4.49533    
Ga       Ga     0.926000000000     0.111800000000     0.224000000000     4.49533    
H        H      0.204300000000     0.224700000000     0.894600000000     0.105419   
H        H      0.618900000000     0.995300000000     0.548600000000     0.105419   
H        H      0.053500000000     0.165500000000     0.647000000000     0.105419   
H        H      0.770700000000     0.054400000000     0.796200000000     0.105419   
H        H      0.161000000000     0.326000000000     0.187200000000     0.105419   
H        H      0.704300000000     0.669900000000     0.894600000000     0.105419   
H        H      0.118900000000     0.553300000000     0.548600000000     0.105419   
H        H      0.553500000000     0.481500000000     0.647000000000     0.105419   
H        H      0.270700000000     0.741800000000     0.796200000000     0.105419   
H        H      0.661000000000     0.861200000000     0.187200000000     0.105419   
C        C      0.589300000000     0.175700000000     0.007800000000     0.148262   
C        C      0.498100000000     0.144900000000     0.859400000000     0.148262   
C        C      0.617100000000     0.078500000000     0.763600000000     0.148262   
C        C      0.293600000000     0.176800000000     0.820600000000     0.148262   
C        C      0.530100000000     0.043000000000     0.622800000000     0.148262   
C        C      0.207200000000     0.141700000000     0.679600000000     0.148262   
C        C      0.326100000000     0.075100000000     0.584000000000     0.148262   
C        C      0.229000000000     0.045600000000     0.436600000000     0.148262   
C        C      0.089300000000     0.832100000000     0.007800000000     0.148262   
C        C      0.998100000000     0.714500000000     0.859400000000     0.148262   
C        C      0.117100000000     0.685100000000     0.763600000000     0.148262   
C        C      0.793600000000     0.643800000000     0.820600000000     0.148262   
C        C      0.030100000000     0.579800000000     0.622800000000     0.148262   
C        C      0.707200000000     0.537900000000     0.679600000000     0.148262   
C        C      0.826100000000     0.508900000000     0.584000000000     0.148262   
C        C      0.729000000000     0.391000000000     0.436600000000     0.148262   
O        O      0.472100000000     0.235000000000     0.091600000000    -1.2417     
O        O      0.773200000000     0.138600000000     0.046600000000    -1.2417     
O        O      0.342300000000     0.996100000000     0.350400000000    -1.2417     
O        O      0.041000000000     0.073500000000     0.403600000000    -1.2417     
O        O      0.172600000000     0.214700000000     0.213200000000    -1.2417     
O        O      0.972100000000     0.856600000000     0.091600000000    -1.2417     
O        O      0.273200000000     0.908000000000     0.046600000000    -1.2417     
O        O      0.842300000000     0.354300000000     0.350400000000    -1.2417     
O        O      0.541000000000     0.330100000000     0.403600000000    -1.2417     
O        O      0.672600000000     0.998500000000     0.213200000000    -1.2417     


