data_SOWYIM_original

_audit_creation_method RASPA-1.0
_audit_creation_date 2022-1-29
_audit_author_name 'Felipe Lopes de Oliveira <felipe.lopes.oliveira@ibm.com>'

_cell_length_a    11.499
_cell_length_b    11.499
_cell_length_c    15.795
_cell_angle_alpha 90
_cell_angle_beta  90
_cell_angle_gamma 90
_cell_volume      2088.53

_symmetry_cell_setting          triclinic
_symmetry_space_group_name_Hall 'P 1'
_symmetry_space_group_name_H-M  'P 1'
_symmetry_Int_Tables_number     1

_symmetry_equiv_pos_as_xyz 'x,y,z'

loop_
_atom_site_label
_atom_site_type_symbol
_atom_site_fract_x
_atom_site_fract_y
_atom_site_fract_z
_atom_site_charge
Na       Na     0.608300000000     0.391700000000     0.250000000000     2.03851    
Na       Na     0.108300000000     0.108300000000     0.500000000000     2.03851    
Na       Na     0.391700000000     0.608300000000     0.750000000000     2.03851    
Na       Na     0.891700000000     0.891700000000     0.000000000000     2.03851    
Si       Si     0.479900000000     0.641600000000     0.323200000000     2.14103    
Si       Si     0.858400000000     0.979900000000     0.573200000000     2.14103    
Si       Si     0.520100000000     0.358400000000     0.823200000000     2.14103    
Si       Si     0.141600000000     0.020100000000     0.073200000000     2.14103    
Si       Si     0.641600000000     0.479900000000     0.676800000000     2.14103    
Si       Si     0.979900000000     0.858400000000     0.426800000000     2.14103    
Si       Si     0.358400000000     0.520100000000     0.176800000000     2.14103    
Si       Si     0.020100000000     0.141600000000     0.926800000000     2.14103    
H        H      0.379100000000     0.698400000000     0.454300000000     0.247092   
H        H      0.801600000000     0.879100000000     0.704300000000     0.247092   
H        H      0.620900000000     0.301600000000     0.954300000000     0.247092   
H        H      0.198400000000     0.120900000000     0.204300000000     0.247092   
H        H      0.698400000000     0.379100000000     0.545700000000     0.247092   
H        H      0.879100000000     0.801600000000     0.295700000000     0.247092   
H        H      0.301600000000     0.620900000000     0.045700000000     0.247092   
H        H      0.120900000000     0.198400000000     0.795700000000     0.247092   
H        H      0.377600000000     0.570600000000     0.445400000000     0.247092   
H        H      0.929400000000     0.877600000000     0.695400000000     0.247092   
H        H      0.622400000000     0.429400000000     0.945400000000     0.247092   
H        H      0.070600000000     0.122400000000     0.195400000000     0.247092   
H        H      0.570600000000     0.377600000000     0.554600000000     0.247092   
H        H      0.877600000000     0.929400000000     0.304600000000     0.247092   
H        H      0.429400000000     0.622400000000     0.054600000000     0.247092   
H        H      0.122400000000     0.070600000000     0.804600000000     0.247092   
H        H      0.290400000000     0.642200000000     0.400700000000     0.247092   
H        H      0.857800000000     0.790400000000     0.650700000000     0.247092   
H        H      0.709600000000     0.357800000000     0.900700000000     0.247092   
H        H      0.142200000000     0.209600000000     0.150700000000     0.247092   
H        H      0.642200000000     0.290400000000     0.599300000000     0.247092   
H        H      0.790400000000     0.857800000000     0.349300000000     0.247092   
H        H      0.357800000000     0.709600000000     0.099300000000     0.247092   
H        H      0.209600000000     0.142200000000     0.849300000000     0.247092   
H        H      0.501800000000     0.848700000000     0.322600000000     0.247092   
H        H      0.651300000000     0.001800000000     0.572600000000     0.247092   
H        H      0.498200000000     0.151300000000     0.822600000000     0.247092   
H        H      0.348700000000     0.998200000000     0.072600000000     0.247092   
H        H      0.848700000000     0.501800000000     0.677400000000     0.247092   
H        H      0.001800000000     0.651300000000     0.427400000000     0.247092   
H        H      0.151300000000     0.498200000000     0.177400000000     0.247092   
H        H      0.998200000000     0.348700000000     0.927400000000     0.247092   
H        H      0.526300000000     0.811000000000     0.235000000000     0.247092   
H        H      0.689000000000     0.026300000000     0.485000000000     0.247092   
H        H      0.473700000000     0.189000000000     0.735000000000     0.247092   
H        H      0.311000000000     0.973700000000     0.985000000000     0.247092   
H        H      0.811000000000     0.526300000000     0.765000000000     0.247092   
H        H      0.026300000000     0.689000000000     0.515000000000     0.247092   
H        H      0.189000000000     0.473700000000     0.265000000000     0.247092   
H        H      0.973700000000     0.311000000000     0.015000000000     0.247092   
H        H      0.405700000000     0.830800000000     0.262200000000     0.247092   
H        H      0.669200000000     0.905700000000     0.512200000000     0.247092   
H        H      0.594300000000     0.169200000000     0.762200000000     0.247092   
H        H      0.330800000000     0.094300000000     0.012200000000     0.247092   
H        H      0.830800000000     0.405700000000     0.737800000000     0.247092   
H        H      0.905700000000     0.669200000000     0.487800000000     0.247092   
H        H      0.169200000000     0.594300000000     0.237800000000     0.247092   
H        H      0.094300000000     0.330800000000     0.987800000000     0.247092   
H        H      0.632200000000     0.551600000000     0.405600000000     0.247092   
H        H      0.948400000000     0.132200000000     0.655600000000     0.247092   
H        H      0.367800000000     0.448400000000     0.905600000000     0.247092   
H        H      0.051600000000     0.867800000000     0.155600000000     0.247092   
H        H      0.551600000000     0.632200000000     0.594400000000     0.247092   
H        H      0.132200000000     0.948400000000     0.344400000000     0.247092   
H        H      0.448400000000     0.367800000000     0.094400000000     0.247092   
H        H      0.867800000000     0.051600000000     0.844400000000     0.247092   
H        H      0.693600000000     0.623900000000     0.342200000000     0.247092   
H        H      0.876100000000     0.193600000000     0.592200000000     0.247092   
H        H      0.306400000000     0.376100000000     0.842200000000     0.247092   
H        H      0.123900000000     0.806400000000     0.092200000000     0.247092   
H        H      0.623900000000     0.693600000000     0.657800000000     0.247092   
H        H      0.193600000000     0.876100000000     0.407800000000     0.247092   
H        H      0.376100000000     0.306400000000     0.157800000000     0.247092   
H        H      0.806400000000     0.123900000000     0.907800000000     0.247092   
H        H      0.643200000000     0.678000000000     0.418500000000     0.247092   
H        H      0.822000000000     0.143200000000     0.668500000000     0.247092   
H        H      0.356800000000     0.322000000000     0.918500000000     0.247092   
H        H      0.178000000000     0.856800000000     0.168500000000     0.247092   
H        H      0.678000000000     0.643200000000     0.581500000000     0.247092   
H        H      0.143200000000     0.822000000000     0.331500000000     0.247092   
H        H      0.322000000000     0.356800000000     0.081500000000     0.247092   
H        H      0.856800000000     0.178000000000     0.831500000000     0.247092   
H        H      0.866100000000     0.498900000000     0.332300000000     0.247092   
H        H      0.001100000000     0.366100000000     0.582300000000     0.247092   
H        H      0.133900000000     0.501100000000     0.832300000000     0.247092   
H        H      0.998900000000     0.633900000000     0.082300000000     0.247092   
H        H      0.498900000000     0.866100000000     0.667700000000     0.247092   
H        H      0.366100000000     0.001100000000     0.417700000000     0.247092   
H        H      0.501100000000     0.133900000000     0.167700000000     0.247092   
H        H      0.633900000000     0.998900000000     0.917700000000     0.247092   
H        H      0.832100000000     0.443300000000     0.432200000000     0.247092   
H        H      0.056700000000     0.332100000000     0.682200000000     0.247092   
H        H      0.167900000000     0.556700000000     0.932200000000     0.247092   
H        H      0.943300000000     0.667900000000     0.182200000000     0.247092   
H        H      0.443300000000     0.832100000000     0.567800000000     0.247092   
H        H      0.332100000000     0.056700000000     0.317800000000     0.247092   
H        H      0.556700000000     0.167900000000     0.067800000000     0.247092   
H        H      0.667900000000     0.943300000000     0.817800000000     0.247092   
H        H      0.723800000000     0.184600000000     0.330800000000     0.247092   
H        H      0.315400000000     0.223800000000     0.580800000000     0.247092   
H        H      0.276200000000     0.815400000000     0.830800000000     0.247092   
H        H      0.684600000000     0.776200000000     0.080800000000     0.247092   
H        H      0.184600000000     0.723800000000     0.669200000000     0.247092   
H        H      0.223800000000     0.315400000000     0.419200000000     0.247092   
H        H      0.815400000000     0.276200000000     0.169200000000     0.247092   
H        H      0.776200000000     0.684600000000     0.919200000000     0.247092   
H        H      0.749800000000     0.241900000000     0.431700000000     0.247092   
H        H      0.258100000000     0.249800000000     0.681700000000     0.247092   
H        H      0.250200000000     0.758100000000     0.931700000000     0.247092   
H        H      0.741900000000     0.750200000000     0.181700000000     0.247092   
H        H      0.241900000000     0.749800000000     0.568300000000     0.247092   
H        H      0.249800000000     0.258100000000     0.318300000000     0.247092   
H        H      0.758100000000     0.250200000000     0.068300000000     0.247092   
H        H      0.750200000000     0.741900000000     0.818300000000     0.247092   
H        H      0.891700000000     0.100900000000     0.399300000000     0.247092   
H        H      0.399100000000     0.391700000000     0.649300000000     0.247092   
H        H      0.108300000000     0.899100000000     0.899300000000     0.247092   
H        H      0.600900000000     0.608300000000     0.149300000000     0.247092   
H        H      0.100900000000     0.891700000000     0.600700000000     0.247092   
H        H      0.391700000000     0.399100000000     0.350700000000     0.247092   
H        H      0.899100000000     0.108300000000     0.100700000000     0.247092   
H        H      0.608300000000     0.600900000000     0.850700000000     0.247092   
H        H      0.929500000000     0.170400000000     0.304700000000     0.247092   
H        H      0.329600000000     0.429500000000     0.554700000000     0.247092   
H        H      0.070500000000     0.829600000000     0.804700000000     0.247092   
H        H      0.670400000000     0.570500000000     0.054700000000     0.247092   
H        H      0.170400000000     0.929500000000     0.695300000000     0.247092   
H        H      0.429500000000     0.329600000000     0.445300000000     0.247092   
H        H      0.829600000000     0.070500000000     0.195300000000     0.247092   
H        H      0.570500000000     0.670400000000     0.945300000000     0.247092   
H        H      0.018400000000     0.358000000000     0.309400000000     0.247092   
H        H      0.142000000000     0.518400000000     0.559400000000     0.247092   
H        H      0.981600000000     0.642000000000     0.809400000000     0.247092   
H        H      0.858000000000     0.481600000000     0.059400000000     0.247092   
H        H      0.358000000000     0.018400000000     0.690600000000     0.247092   
H        H      0.518400000000     0.142000000000     0.440600000000     0.247092   
H        H      0.642000000000     0.981600000000     0.190600000000     0.247092   
H        H      0.481600000000     0.858000000000     0.940600000000     0.247092   
H        H      0.044000000000     0.421300000000     0.408200000000     0.247092   
H        H      0.078700000000     0.544000000000     0.658200000000     0.247092   
H        H      0.956000000000     0.578700000000     0.908200000000     0.247092   
H        H      0.921300000000     0.456000000000     0.158200000000     0.247092   
H        H      0.421300000000     0.044000000000     0.591800000000     0.247092   
H        H      0.544000000000     0.078700000000     0.341800000000     0.247092   
H        H      0.578700000000     0.956000000000     0.091800000000     0.247092   
H        H      0.456000000000     0.921300000000     0.841800000000     0.247092   
C        C      0.371400000000     0.639400000000     0.412200000000    -0.848144   
C        C      0.860600000000     0.871400000000     0.662200000000    -0.848144   
C        C      0.628600000000     0.360600000000     0.912200000000    -0.848144   
C        C      0.139400000000     0.128600000000     0.162200000000    -0.848144   
C        C      0.639400000000     0.371400000000     0.587800000000    -0.848144   
C        C      0.871400000000     0.860600000000     0.337800000000    -0.848144   
C        C      0.360600000000     0.628600000000     0.087800000000    -0.848144   
C        C      0.128600000000     0.139400000000     0.837800000000    -0.848144   
C        C      0.475700000000     0.794700000000     0.281300000000    -0.848144   
C        C      0.705300000000     0.975700000000     0.531300000000    -0.848144   
C        C      0.524300000000     0.205300000000     0.781300000000    -0.848144   
C        C      0.294700000000     0.024300000000     0.031300000000    -0.848144   
C        C      0.794700000000     0.475700000000     0.718700000000    -0.848144   
C        C      0.975700000000     0.705300000000     0.468700000000    -0.848144   
C        C      0.205300000000     0.524300000000     0.218700000000    -0.848144   
C        C      0.024300000000     0.294700000000     0.968700000000    -0.848144   
C        C      0.625200000000     0.622900000000     0.375300000000    -0.848144   
C        C      0.877100000000     0.125200000000     0.625300000000    -0.848144   
C        C      0.374800000000     0.377100000000     0.875300000000    -0.848144   
C        C      0.122900000000     0.874800000000     0.125300000000    -0.848144   
C        C      0.622900000000     0.625200000000     0.624700000000    -0.848144   
C        C      0.125200000000     0.877100000000     0.374700000000    -0.848144   
C        C      0.377100000000     0.374800000000     0.124700000000    -0.848144   
C        C      0.874800000000     0.122900000000     0.874700000000    -0.848144   
C        C      0.865600000000     0.421500000000     0.370700000000    -0.848144   
C        C      0.078500000000     0.365600000000     0.620700000000    -0.848144   
C        C      0.134400000000     0.578500000000     0.870700000000    -0.848144   
C        C      0.921500000000     0.634400000000     0.120700000000    -0.848144   
C        C      0.421500000000     0.865600000000     0.629300000000    -0.848144   
C        C      0.365600000000     0.078500000000     0.379300000000    -0.848144   
C        C      0.578500000000     0.134400000000     0.129300000000    -0.848144   
C        C      0.634400000000     0.921500000000     0.879300000000    -0.848144   
C        C      0.782000000000     0.236600000000     0.368100000000    -0.848144   
C        C      0.263400000000     0.282000000000     0.618100000000    -0.848144   
C        C      0.218000000000     0.763400000000     0.868100000000    -0.848144   
C        C      0.736600000000     0.718000000000     0.118100000000    -0.848144   
C        C      0.236600000000     0.782000000000     0.631900000000    -0.848144   
C        C      0.282000000000     0.263400000000     0.381900000000    -0.848144   
C        C      0.763400000000     0.218000000000     0.131900000000    -0.848144   
C        C      0.718000000000     0.736600000000     0.881900000000    -0.848144   
C        C      0.900700000000     0.182700000000     0.368700000000    -0.848144   
C        C      0.317300000000     0.400700000000     0.618700000000    -0.848144   
C        C      0.099300000000     0.817300000000     0.868700000000    -0.848144   
C        C      0.682700000000     0.599300000000     0.118700000000    -0.848144   
C        C      0.182700000000     0.900700000000     0.631300000000    -0.848144   
C        C      0.400700000000     0.317300000000     0.381300000000    -0.848144   
C        C      0.817300000000     0.099300000000     0.131300000000    -0.848144   
C        C      0.599300000000     0.682700000000     0.881300000000    -0.848144   
C        C      0.985500000000     0.367100000000     0.372800000000    -0.848144   
C        C      0.132900000000     0.485500000000     0.622800000000    -0.848144   
C        C      0.014500000000     0.632900000000     0.872800000000    -0.848144   
C        C      0.867100000000     0.514500000000     0.122800000000    -0.848144   
C        C      0.367100000000     0.985500000000     0.627200000000    -0.848144   
C        C      0.485500000000     0.132900000000     0.377200000000    -0.848144   
C        C      0.632900000000     0.014500000000     0.127200000000    -0.848144   
C        C      0.514500000000     0.867100000000     0.877200000000    -0.848144   
N        N      0.462000000000     0.538000000000     0.250000000000    -0.992824   
N        N      0.962000000000     0.962000000000     0.500000000000    -0.992824   
N        N      0.538000000000     0.462000000000     0.750000000000    -0.992824   
N        N      0.038000000000     0.038000000000     0.000000000000    -0.992824   
O        O      0.783800000000     0.348800000000     0.328200000000    -0.463713   
O        O      0.151200000000     0.283800000000     0.578200000000    -0.463713   
O        O      0.216200000000     0.651200000000     0.828200000000    -0.463713   
O        O      0.848800000000     0.716200000000     0.078200000000    -0.463713   
O        O      0.348800000000     0.783800000000     0.671800000000    -0.463713   
O        O      0.283800000000     0.151200000000     0.421800000000    -0.463713   
O        O      0.651200000000     0.216200000000     0.171800000000    -0.463713   
O        O      0.716200000000     0.848800000000     0.921800000000    -0.463713   
O        O      0.982100000000     0.255700000000     0.413000000000    -0.463713   
O        O      0.244300000000     0.482100000000     0.663000000000    -0.463713   
O        O      0.017900000000     0.744300000000     0.913000000000    -0.463713   
O        O      0.755700000000     0.517900000000     0.163000000000    -0.463713   
O        O      0.255700000000     0.982100000000     0.587000000000    -0.463713   
O        O      0.482100000000     0.244300000000     0.337000000000    -0.463713   
O        O      0.744300000000     0.017900000000     0.087000000000    -0.463713   
O        O      0.517900000000     0.755700000000     0.837000000000    -0.463713   


