data_SUJQOE_original

_audit_creation_method RASPA-1.0
_audit_creation_date 2022-1-29
_audit_author_name 'Felipe Lopes de Oliveira <felipe.lopes.oliveira@ibm.com>'

_cell_length_a    13.7372
_cell_length_b    14.7731
_cell_length_c    21.075
_cell_angle_alpha 90
_cell_angle_beta  90
_cell_angle_gamma 90
_cell_volume      4276.98

_symmetry_cell_setting          triclinic
_symmetry_space_group_name_Hall 'P 1'
_symmetry_space_group_name_H-M  'P 1'
_symmetry_Int_Tables_number     1

_symmetry_equiv_pos_as_xyz 'x,y,z'

loop_
_atom_site_label
_atom_site_type_symbol
_atom_site_fract_x
_atom_site_fract_y
_atom_site_fract_z
_atom_site_charge
Zn       Zn     0.528770000000     0.097660000000     0.938390000000     0.455117   
Zn       Zn     0.471230000000     0.597660000000     0.561610000000     0.455117   
Zn       Zn     0.471230000000     0.902340000000     0.061610000000     0.455117   
Zn       Zn     0.528770000000     0.402340000000     0.438390000000     0.455117   
Zn       Zn     0.971230000000     0.902340000000     0.438390000000     0.455117   
Zn       Zn     0.028770000000     0.402340000000     0.061610000000     0.455117   
Zn       Zn     0.028770000000     0.097660000000     0.561610000000     0.455117   
Zn       Zn     0.971230000000     0.597660000000     0.938390000000     0.455117   
H        H      0.513400000000     0.365900000000     0.820100000000     0.0640599  
H        H      0.531600000000     0.222100000000     0.737000000000     0.0640599  
H        H      0.507900000000     0.410400000000     0.707500000000     0.0640599  
H        H      0.529600000000     0.265800000000     0.625400000000     0.0640599  
H        H      0.347000000000     0.030700000000     0.866500000000     0.0640599  
H        H      0.181000000000     0.027800000000     0.870400000000     0.0640599  
H        H      0.193200000000     0.172900000000     0.031800000000     0.0640599  
H        H      0.359600000000     0.173700000000     0.022600000000     0.0640599  
H        H      0.036400000000     0.129500000000     0.995100000000     0.0640599  
H        H      0.020600000000     0.044900000000     0.879000000000     0.0640599  
H        H      0.717500000000     0.148600000000     0.015000000000     0.0640599  
H        H      0.883100000000     0.141200000000     0.009700000000     0.0640599  
H        H      0.855100000000     0.014600000000     0.841300000000     0.0640599  
H        H      0.689600000000     0.025700000000     0.852100000000     0.0640599  
H        H      0.486600000000     0.865900000000     0.679900000000     0.0640599  
H        H      0.468400000000     0.722100000000     0.763000000000     0.0640599  
H        H      0.492100000000     0.910400000000     0.792500000000     0.0640599  
H        H      0.470400000000     0.765800000000     0.874600000000     0.0640599  
H        H      0.653000000000     0.530700000000     0.633500000000     0.0640599  
H        H      0.819000000000     0.527800000000     0.629600000000     0.0640599  
H        H      0.806800000000     0.672900000000     0.468200000000     0.0640599  
H        H      0.640400000000     0.673700000000     0.477400000000     0.0640599  
H        H      0.963600000000     0.629500000000     0.504900000000     0.0640599  
H        H      0.979400000000     0.544900000000     0.621000000000     0.0640599  
H        H      0.282500000000     0.648600000000     0.485000000000     0.0640599  
H        H      0.116900000000     0.641200000000     0.490300000000     0.0640599  
H        H      0.144900000000     0.514600000000     0.658700000000     0.0640599  
H        H      0.310400000000     0.525700000000     0.647900000000     0.0640599  
H        H      0.486600000000     0.634100000000     0.179900000000     0.0640599  
H        H      0.468400000000     0.777900000000     0.263000000000     0.0640599  
H        H      0.492100000000     0.589600000000     0.292500000000     0.0640599  
H        H      0.470400000000     0.734200000000     0.374600000000     0.0640599  
H        H      0.653000000000     0.969300000000     0.133500000000     0.0640599  
H        H      0.819000000000     0.972200000000     0.129600000000     0.0640599  
H        H      0.806800000000     0.827100000000     0.968200000000     0.0640599  
H        H      0.640400000000     0.826300000000     0.977400000000     0.0640599  
H        H      0.963600000000     0.870500000000     0.004900000000     0.0640599  
H        H      0.979400000000     0.955100000000     0.121000000000     0.0640599  
H        H      0.282500000000     0.851400000000     0.985000000000     0.0640599  
H        H      0.116900000000     0.858800000000     0.990300000000     0.0640599  
H        H      0.144900000000     0.985400000000     0.158700000000     0.0640599  
H        H      0.310400000000     0.974300000000     0.147900000000     0.0640599  
H        H      0.513400000000     0.134100000000     0.320100000000     0.0640599  
H        H      0.531600000000     0.277900000000     0.237000000000     0.0640599  
H        H      0.507900000000     0.089600000000     0.207500000000     0.0640599  
H        H      0.529600000000     0.234200000000     0.125400000000     0.0640599  
H        H      0.347000000000     0.469300000000     0.366500000000     0.0640599  
H        H      0.181000000000     0.472200000000     0.370400000000     0.0640599  
H        H      0.193200000000     0.327100000000     0.531800000000     0.0640599  
H        H      0.359600000000     0.326300000000     0.522600000000     0.0640599  
H        H      0.036400000000     0.370500000000     0.495100000000     0.0640599  
H        H      0.020600000000     0.455100000000     0.379000000000     0.0640599  
H        H      0.717500000000     0.351400000000     0.515000000000     0.0640599  
H        H      0.883100000000     0.358800000000     0.509700000000     0.0640599  
H        H      0.855100000000     0.485400000000     0.341300000000     0.0640599  
H        H      0.689600000000     0.474300000000     0.352100000000     0.0640599  
H        H      0.986600000000     0.634100000000     0.320100000000     0.0640599  
H        H      0.968400000000     0.777900000000     0.237000000000     0.0640599  
H        H      0.992100000000     0.589600000000     0.207500000000     0.0640599  
H        H      0.970400000000     0.734200000000     0.125400000000     0.0640599  
H        H      0.153000000000     0.969300000000     0.366500000000     0.0640599  
H        H      0.319000000000     0.972200000000     0.370400000000     0.0640599  
H        H      0.306800000000     0.827100000000     0.531800000000     0.0640599  
H        H      0.140400000000     0.826300000000     0.522600000000     0.0640599  
H        H      0.463600000000     0.870500000000     0.495100000000     0.0640599  
H        H      0.479400000000     0.955100000000     0.379000000000     0.0640599  
H        H      0.782500000000     0.851400000000     0.515000000000     0.0640599  
H        H      0.616900000000     0.858800000000     0.509700000000     0.0640599  
H        H      0.644900000000     0.985400000000     0.341300000000     0.0640599  
H        H      0.810400000000     0.974300000000     0.352100000000     0.0640599  
H        H      0.013400000000     0.134100000000     0.179900000000     0.0640599  
H        H      0.031600000000     0.277900000000     0.263000000000     0.0640599  
H        H      0.007900000000     0.089600000000     0.292500000000     0.0640599  
H        H      0.029600000000     0.234200000000     0.374600000000     0.0640599  
H        H      0.847000000000     0.469300000000     0.133500000000     0.0640599  
H        H      0.681000000000     0.472200000000     0.129600000000     0.0640599  
H        H      0.693200000000     0.327100000000     0.968200000000     0.0640599  
H        H      0.859600000000     0.326300000000     0.977400000000     0.0640599  
H        H      0.536400000000     0.370500000000     0.004900000000     0.0640599  
H        H      0.520600000000     0.455100000000     0.121000000000     0.0640599  
H        H      0.217500000000     0.351400000000     0.985000000000     0.0640599  
H        H      0.383100000000     0.358800000000     0.990300000000     0.0640599  
H        H      0.355100000000     0.485400000000     0.158700000000     0.0640599  
H        H      0.189600000000     0.474300000000     0.147900000000     0.0640599  
H        H      0.013400000000     0.365900000000     0.679900000000     0.0640599  
H        H      0.031600000000     0.222100000000     0.763000000000     0.0640599  
H        H      0.007900000000     0.410400000000     0.792500000000     0.0640599  
H        H      0.029600000000     0.265800000000     0.874600000000     0.0640599  
H        H      0.847000000000     0.030700000000     0.633500000000     0.0640599  
H        H      0.681000000000     0.027800000000     0.629600000000     0.0640599  
H        H      0.693200000000     0.172900000000     0.468200000000     0.0640599  
H        H      0.859600000000     0.173700000000     0.477400000000     0.0640599  
H        H      0.536400000000     0.129500000000     0.504900000000     0.0640599  
H        H      0.520600000000     0.044900000000     0.621000000000     0.0640599  
H        H      0.217500000000     0.148600000000     0.485000000000     0.0640599  
H        H      0.383100000000     0.141200000000     0.490300000000     0.0640599  
H        H      0.355100000000     0.014600000000     0.658700000000     0.0640599  
H        H      0.189600000000     0.025700000000     0.647900000000     0.0640599  
H        H      0.986600000000     0.865900000000     0.820100000000     0.0640599  
H        H      0.968400000000     0.722100000000     0.737000000000     0.0640599  
H        H      0.992100000000     0.910400000000     0.707500000000     0.0640599  
H        H      0.970400000000     0.765800000000     0.625400000000     0.0640599  
H        H      0.153000000000     0.530700000000     0.866500000000     0.0640599  
H        H      0.319000000000     0.527800000000     0.870400000000     0.0640599  
H        H      0.306800000000     0.672900000000     0.031800000000     0.0640599  
H        H      0.140400000000     0.673700000000     0.022600000000     0.0640599  
H        H      0.463600000000     0.629500000000     0.995100000000     0.0640599  
H        H      0.479400000000     0.544900000000     0.879000000000     0.0640599  
H        H      0.782500000000     0.648600000000     0.015000000000     0.0640599  
H        H      0.616900000000     0.641200000000     0.009700000000     0.0640599  
H        H      0.644900000000     0.514600000000     0.841300000000     0.0640599  
H        H      0.810400000000     0.525700000000     0.852100000000     0.0640599  
C        C      0.523300000000     0.235900000000     0.860940000000     0.0088474  
C        C      0.519200000000     0.304500000000     0.808920000000     0.0088474  
C        C      0.523400000000     0.283400000000     0.747890000000     0.0088474  
C        C      0.516200000000     0.349100000000     0.696800000000     0.0088474  
C        C      0.520700000000     0.327000000000     0.636050000000     0.0088474  
C        C      0.512400000000     0.393900000000     0.583760000000     0.0088474  
C        C      0.315600000000     0.059700000000     0.900500000000     0.0088474  
C        C      0.216200000000     0.057800000000     0.902300000000     0.0088474  
C        C      0.167600000000     0.100700000000     0.951700000000     0.0088474  
C        C      0.223200000000     0.143600000000     0.997380000000     0.0088474  
C        C      0.323000000000     0.142900000000     0.991740000000     0.0088474  
C        C      0.061400000000     0.103200000000     0.957930000000     0.0088474  
C        C      0.996600000000     0.071900000000     0.916260000000     0.0088474  
C        C      0.746000000000     0.121000000000     0.979330000000     0.0088474  
C        C      0.845400000000     0.117000000000     0.976570000000     0.0088474  
C        C      0.890700000000     0.076800000000     0.924290000000     0.0088474  
C        C      0.828800000000     0.042500000000     0.877520000000     0.0088474  
C        C      0.729400000000     0.049400000000     0.884350000000     0.0088474  
C        C      0.476700000000     0.735900000000     0.639060000000     0.0088474  
C        C      0.480800000000     0.804500000000     0.691080000000     0.0088474  
C        C      0.476600000000     0.783400000000     0.752110000000     0.0088474  
C        C      0.483800000000     0.849100000000     0.803200000000     0.0088474  
C        C      0.479300000000     0.827000000000     0.863950000000     0.0088474  
C        C      0.487600000000     0.893900000000     0.916240000000     0.0088474  
C        C      0.684400000000     0.559700000000     0.599500000000     0.0088474  
C        C      0.783800000000     0.557800000000     0.597700000000     0.0088474  
C        C      0.832400000000     0.600700000000     0.548300000000     0.0088474  
C        C      0.776800000000     0.643600000000     0.502620000000     0.0088474  
C        C      0.677000000000     0.642900000000     0.508260000000     0.0088474  
C        C      0.938600000000     0.603200000000     0.542070000000     0.0088474  
C        C      0.003400000000     0.571900000000     0.583740000000     0.0088474  
C        C      0.254000000000     0.621000000000     0.520670000000     0.0088474  
C        C      0.154600000000     0.617000000000     0.523430000000     0.0088474  
C        C      0.109300000000     0.576800000000     0.575710000000     0.0088474  
C        C      0.171200000000     0.542500000000     0.622480000000     0.0088474  
C        C      0.270600000000     0.549400000000     0.615650000000     0.0088474  
C        C      0.476700000000     0.764100000000     0.139060000000     0.0088474  
C        C      0.480800000000     0.695500000000     0.191080000000     0.0088474  
C        C      0.476600000000     0.716600000000     0.252110000000     0.0088474  
C        C      0.483800000000     0.650900000000     0.303200000000     0.0088474  
C        C      0.479300000000     0.673000000000     0.363950000000     0.0088474  
C        C      0.487600000000     0.606100000000     0.416240000000     0.0088474  
C        C      0.684400000000     0.940300000000     0.099500000000     0.0088474  
C        C      0.783800000000     0.942200000000     0.097700000000     0.0088474  
C        C      0.832400000000     0.899300000000     0.048300000000     0.0088474  
C        C      0.776800000000     0.856400000000     0.002620000000     0.0088474  
C        C      0.677000000000     0.857100000000     0.008260000000     0.0088474  
C        C      0.938600000000     0.896800000000     0.042070000000     0.0088474  
C        C      0.003400000000     0.928100000000     0.083740000000     0.0088474  
C        C      0.254000000000     0.879000000000     0.020670000000     0.0088474  
C        C      0.154600000000     0.883000000000     0.023430000000     0.0088474  
C        C      0.109300000000     0.923200000000     0.075710000000     0.0088474  
C        C      0.171200000000     0.957500000000     0.122480000000     0.0088474  
C        C      0.270600000000     0.950600000000     0.115650000000     0.0088474  
C        C      0.523300000000     0.264100000000     0.360940000000     0.0088474  
C        C      0.519200000000     0.195500000000     0.308920000000     0.0088474  
C        C      0.523400000000     0.216600000000     0.247890000000     0.0088474  
C        C      0.516200000000     0.150900000000     0.196800000000     0.0088474  
C        C      0.520700000000     0.173000000000     0.136050000000     0.0088474  
C        C      0.512400000000     0.106100000000     0.083760000000     0.0088474  
C        C      0.315600000000     0.440300000000     0.400500000000     0.0088474  
C        C      0.216200000000     0.442200000000     0.402300000000     0.0088474  
C        C      0.167600000000     0.399300000000     0.451700000000     0.0088474  
C        C      0.223200000000     0.356400000000     0.497380000000     0.0088474  
C        C      0.323000000000     0.357100000000     0.491740000000     0.0088474  
C        C      0.061400000000     0.396800000000     0.457930000000     0.0088474  
C        C      0.996600000000     0.428100000000     0.416260000000     0.0088474  
C        C      0.746000000000     0.379000000000     0.479330000000     0.0088474  
C        C      0.845400000000     0.383000000000     0.476570000000     0.0088474  
C        C      0.890700000000     0.423200000000     0.424290000000     0.0088474  
C        C      0.828800000000     0.457500000000     0.377520000000     0.0088474  
C        C      0.729400000000     0.450600000000     0.384350000000     0.0088474  
C        C      0.976700000000     0.764100000000     0.360940000000     0.0088474  
C        C      0.980800000000     0.695500000000     0.308920000000     0.0088474  
C        C      0.976600000000     0.716600000000     0.247890000000     0.0088474  
C        C      0.983800000000     0.650900000000     0.196800000000     0.0088474  
C        C      0.979300000000     0.673000000000     0.136050000000     0.0088474  
C        C      0.987600000000     0.606100000000     0.083760000000     0.0088474  
C        C      0.184400000000     0.940300000000     0.400500000000     0.0088474  
C        C      0.283800000000     0.942200000000     0.402300000000     0.0088474  
C        C      0.332400000000     0.899300000000     0.451700000000     0.0088474  
C        C      0.276800000000     0.856400000000     0.497380000000     0.0088474  
C        C      0.177000000000     0.857100000000     0.491740000000     0.0088474  
C        C      0.438600000000     0.896800000000     0.457930000000     0.0088474  
C        C      0.503400000000     0.928100000000     0.416260000000     0.0088474  
C        C      0.754000000000     0.879000000000     0.479330000000     0.0088474  
C        C      0.654600000000     0.883000000000     0.476570000000     0.0088474  
C        C      0.609300000000     0.923200000000     0.424290000000     0.0088474  
C        C      0.671200000000     0.957500000000     0.377520000000     0.0088474  
C        C      0.770600000000     0.950600000000     0.384350000000     0.0088474  
C        C      0.023300000000     0.264100000000     0.139060000000     0.0088474  
C        C      0.019200000000     0.195500000000     0.191080000000     0.0088474  
C        C      0.023400000000     0.216600000000     0.252110000000     0.0088474  
C        C      0.016200000000     0.150900000000     0.303200000000     0.0088474  
C        C      0.020700000000     0.173000000000     0.363950000000     0.0088474  
C        C      0.012400000000     0.106100000000     0.416240000000     0.0088474  
C        C      0.815600000000     0.440300000000     0.099500000000     0.0088474  
C        C      0.716200000000     0.442200000000     0.097700000000     0.0088474  
C        C      0.667600000000     0.399300000000     0.048300000000     0.0088474  
C        C      0.723200000000     0.356400000000     0.002620000000     0.0088474  
C        C      0.823000000000     0.357100000000     0.008260000000     0.0088474  
C        C      0.561400000000     0.396800000000     0.042070000000     0.0088474  
C        C      0.496600000000     0.428100000000     0.083740000000     0.0088474  
C        C      0.246000000000     0.379000000000     0.020670000000     0.0088474  
C        C      0.345400000000     0.383000000000     0.023430000000     0.0088474  
C        C      0.390700000000     0.423200000000     0.075710000000     0.0088474  
C        C      0.328800000000     0.457500000000     0.122480000000     0.0088474  
C        C      0.229400000000     0.450600000000     0.115650000000     0.0088474  
C        C      0.023300000000     0.235900000000     0.639060000000     0.0088474  
C        C      0.019200000000     0.304500000000     0.691080000000     0.0088474  
C        C      0.023400000000     0.283400000000     0.752110000000     0.0088474  
C        C      0.016200000000     0.349100000000     0.803200000000     0.0088474  
C        C      0.020700000000     0.327000000000     0.863950000000     0.0088474  
C        C      0.012400000000     0.393900000000     0.916240000000     0.0088474  
C        C      0.815600000000     0.059700000000     0.599500000000     0.0088474  
C        C      0.716200000000     0.057800000000     0.597700000000     0.0088474  
C        C      0.667600000000     0.100700000000     0.548300000000     0.0088474  
C        C      0.723200000000     0.143600000000     0.502620000000     0.0088474  
C        C      0.823000000000     0.142900000000     0.508260000000     0.0088474  
C        C      0.561400000000     0.103200000000     0.542070000000     0.0088474  
C        C      0.496600000000     0.071900000000     0.583740000000     0.0088474  
C        C      0.246000000000     0.121000000000     0.520670000000     0.0088474  
C        C      0.345400000000     0.117000000000     0.523430000000     0.0088474  
C        C      0.390700000000     0.076800000000     0.575710000000     0.0088474  
C        C      0.328800000000     0.042500000000     0.622480000000     0.0088474  
C        C      0.229400000000     0.049400000000     0.615650000000     0.0088474  
C        C      0.976700000000     0.735900000000     0.860940000000     0.0088474  
C        C      0.980800000000     0.804500000000     0.808920000000     0.0088474  
C        C      0.976600000000     0.783400000000     0.747890000000     0.0088474  
C        C      0.983800000000     0.849100000000     0.696800000000     0.0088474  
C        C      0.979300000000     0.827000000000     0.636050000000     0.0088474  
C        C      0.987600000000     0.893900000000     0.583760000000     0.0088474  
C        C      0.184400000000     0.559700000000     0.900500000000     0.0088474  
C        C      0.283800000000     0.557800000000     0.902300000000     0.0088474  
C        C      0.332400000000     0.600700000000     0.951700000000     0.0088474  
C        C      0.276800000000     0.643600000000     0.997380000000     0.0088474  
C        C      0.177000000000     0.642900000000     0.991740000000     0.0088474  
C        C      0.438600000000     0.603200000000     0.957930000000     0.0088474  
C        C      0.503400000000     0.571900000000     0.916260000000     0.0088474  
C        C      0.754000000000     0.621000000000     0.979330000000     0.0088474  
C        C      0.654600000000     0.617000000000     0.976570000000     0.0088474  
C        C      0.609300000000     0.576800000000     0.924290000000     0.0088474  
C        C      0.671200000000     0.542500000000     0.877520000000     0.0088474  
C        C      0.770600000000     0.549400000000     0.884350000000     0.0088474  
N        N      0.371440000000     0.100940000000     0.944910000000    -0.158183   
N        N      0.686520000000     0.087910000000     0.934370000000    -0.158183   
N        N      0.628560000000     0.600940000000     0.555090000000    -0.158183   
N        N      0.313480000000     0.587910000000     0.565630000000    -0.158183   
N        N      0.628560000000     0.899060000000     0.055090000000    -0.158183   
N        N      0.313480000000     0.912090000000     0.065630000000    -0.158183   
N        N      0.371440000000     0.399060000000     0.444910000000    -0.158183   
N        N      0.686520000000     0.412090000000     0.434370000000    -0.158183   
N        N      0.128560000000     0.899060000000     0.444910000000    -0.158183   
N        N      0.813480000000     0.912090000000     0.434370000000    -0.158183   
N        N      0.871440000000     0.399060000000     0.055090000000    -0.158183   
N        N      0.186520000000     0.412090000000     0.065630000000    -0.158183   
N        N      0.871440000000     0.100940000000     0.555090000000    -0.158183   
N        N      0.186520000000     0.087910000000     0.565630000000    -0.158183   
N        N      0.128560000000     0.600940000000     0.944910000000    -0.158183   
N        N      0.813480000000     0.587910000000     0.934370000000    -0.158183   
O        O      0.525310000000     0.152670000000     0.846950000000    -0.298711   
O        O      0.525100000000     0.261860000000     0.916920000000    -0.298711   
O        O      0.476730000000     0.469510000000     0.596230000000    -0.298711   
O        O      0.542490000000     0.367430000000     0.530340000000    -0.298711   
O        O      0.474690000000     0.652670000000     0.653050000000    -0.298711   
O        O      0.474900000000     0.761860000000     0.583080000000    -0.298711   
O        O      0.523270000000     0.969510000000     0.903770000000    -0.298711   
O        O      0.457510000000     0.867430000000     0.969660000000    -0.298711   
O        O      0.474690000000     0.847330000000     0.153050000000    -0.298711   
O        O      0.474900000000     0.738140000000     0.083080000000    -0.298711   
O        O      0.523270000000     0.530490000000     0.403770000000    -0.298711   
O        O      0.457510000000     0.632570000000     0.469660000000    -0.298711   
O        O      0.525310000000     0.347330000000     0.346950000000    -0.298711   
O        O      0.525100000000     0.238140000000     0.416920000000    -0.298711   
O        O      0.476730000000     0.030490000000     0.096230000000    -0.298711   
O        O      0.542490000000     0.132570000000     0.030340000000    -0.298711   
O        O      0.974690000000     0.847330000000     0.346950000000    -0.298711   
O        O      0.974900000000     0.738140000000     0.416920000000    -0.298711   
O        O      0.023270000000     0.530490000000     0.096230000000    -0.298711   
O        O      0.957510000000     0.632570000000     0.030340000000    -0.298711   
O        O      0.025310000000     0.347330000000     0.153050000000    -0.298711   
O        O      0.025100000000     0.238140000000     0.083080000000    -0.298711   
O        O      0.976730000000     0.030490000000     0.403770000000    -0.298711   
O        O      0.042490000000     0.132570000000     0.469660000000    -0.298711   
O        O      0.025310000000     0.152670000000     0.653050000000    -0.298711   
O        O      0.025100000000     0.261860000000     0.583080000000    -0.298711   
O        O      0.976730000000     0.469510000000     0.903770000000    -0.298711   
O        O      0.042490000000     0.367430000000     0.969660000000    -0.298711   
O        O      0.974690000000     0.652670000000     0.846950000000    -0.298711   
O        O      0.974900000000     0.761860000000     0.916920000000    -0.298711   
O        O      0.023270000000     0.969510000000     0.596230000000    -0.298711   
O        O      0.957510000000     0.867430000000     0.530340000000    -0.298711   


