data_SUJREV_original

_audit_creation_method RASPA-1.0
_audit_creation_date 2022-1-29
_audit_author_name 'Felipe Lopes de Oliveira <felipe.lopes.oliveira@ibm.com>'

_cell_length_a    13.5
_cell_length_b    14.702
_cell_length_c    21.245
_cell_angle_alpha 90
_cell_angle_beta  90
_cell_angle_gamma 90
_cell_volume      4216.64

_symmetry_cell_setting          triclinic
_symmetry_space_group_name_Hall 'P 1'
_symmetry_space_group_name_H-M  'P 1'
_symmetry_Int_Tables_number     1

_symmetry_equiv_pos_as_xyz 'x,y,z'

loop_
_atom_site_label
_atom_site_type_symbol
_atom_site_fract_x
_atom_site_fract_y
_atom_site_fract_z
_atom_site_charge
Zn       Zn     0.501870000000     0.394810000000     0.568550000000     0.462667   
Zn       Zn     0.498130000000     0.894810000000     0.931450000000     0.462667   
Zn       Zn     0.498130000000     0.605190000000     0.431450000000     0.462667   
Zn       Zn     0.501870000000     0.105190000000     0.068550000000     0.462667   
Zn       Zn     0.998130000000     0.605190000000     0.068550000000     0.462667   
Zn       Zn     0.001870000000     0.105190000000     0.431450000000     0.462667   
Zn       Zn     0.001870000000     0.394810000000     0.931450000000     0.462667   
Zn       Zn     0.998130000000     0.894810000000     0.568550000000     0.462667   
H        H      0.674100000000     0.471900000000     0.651100000000     0.062579   
H        H      0.839000000000     0.508300000000     0.644100000000     0.062579   
H        H      0.852400000000     0.367200000000     0.484100000000     0.062579   
H        H      0.687600000000     0.334400000000     0.495700000000     0.062579   
H        H      0.994400000000     0.512900000000     0.585400000000     0.062579   
H        H      0.307600000000     0.463000000000     0.633000000000     0.062579   
H        H      0.143000000000     0.482600000000     0.613700000000     0.062579   
H        H      0.174700000000     0.327500000000     0.460300000000     0.062579   
H        H      0.337900000000     0.309900000000     0.486200000000     0.062579   
H        H      0.006800000000     0.378800000000     0.491000000000     0.062579   
H        H      0.517000000000     0.138400000000     0.690200000000     0.062579   
H        H      0.505600000000     0.282700000000     0.771800000000     0.062579   
H        H      0.516400000000     0.094300000000     0.801500000000     0.062579   
H        H      0.500000000000     0.237700000000     0.882900000000     0.062579   
H        H      0.325900000000     0.971900000000     0.848900000000     0.062579   
H        H      0.161000000000     0.008300000000     0.855900000000     0.062579   
H        H      0.147600000000     0.867200000000     0.015900000000     0.062579   
H        H      0.312400000000     0.834400000000     0.004300000000     0.062579   
H        H      0.005600000000     0.012900000000     0.914600000000     0.062579   
H        H      0.692400000000     0.963000000000     0.867000000000     0.062579   
H        H      0.857000000000     0.982600000000     0.886300000000     0.062579   
H        H      0.825300000000     0.827500000000     0.039700000000     0.062579   
H        H      0.662100000000     0.809900000000     0.013800000000     0.062579   
H        H      0.993200000000     0.878800000000     0.009000000000     0.062579   
H        H      0.483000000000     0.638400000000     0.809800000000     0.062579   
H        H      0.494400000000     0.782700000000     0.728200000000     0.062579   
H        H      0.483600000000     0.594300000000     0.698500000000     0.062579   
H        H      0.500000000000     0.737700000000     0.617100000000     0.062579   
H        H      0.325900000000     0.528100000000     0.348900000000     0.062579   
H        H      0.161000000000     0.491700000000     0.355900000000     0.062579   
H        H      0.147600000000     0.632800000000     0.515900000000     0.062579   
H        H      0.312400000000     0.665600000000     0.504300000000     0.062579   
H        H      0.005600000000     0.487100000000     0.414600000000     0.062579   
H        H      0.692400000000     0.537000000000     0.367000000000     0.062579   
H        H      0.857000000000     0.517400000000     0.386300000000     0.062579   
H        H      0.825300000000     0.672500000000     0.539700000000     0.062579   
H        H      0.662100000000     0.690100000000     0.513800000000     0.062579   
H        H      0.993200000000     0.621200000000     0.509000000000     0.062579   
H        H      0.483000000000     0.861600000000     0.309800000000     0.062579   
H        H      0.494400000000     0.717300000000     0.228200000000     0.062579   
H        H      0.483600000000     0.905700000000     0.198500000000     0.062579   
H        H      0.500000000000     0.762300000000     0.117100000000     0.062579   
H        H      0.674100000000     0.028100000000     0.151100000000     0.062579   
H        H      0.839000000000     0.991700000000     0.144100000000     0.062579   
H        H      0.852400000000     0.132800000000     0.984100000000     0.062579   
H        H      0.687600000000     0.165600000000     0.995700000000     0.062579   
H        H      0.994400000000     0.987100000000     0.085400000000     0.062579   
H        H      0.307600000000     0.037000000000     0.133000000000     0.062579   
H        H      0.143000000000     0.017400000000     0.113700000000     0.062579   
H        H      0.174700000000     0.172500000000     0.960300000000     0.062579   
H        H      0.337900000000     0.190100000000     0.986200000000     0.062579   
H        H      0.006800000000     0.121200000000     0.991000000000     0.062579   
H        H      0.517000000000     0.361600000000     0.190200000000     0.062579   
H        H      0.505600000000     0.217300000000     0.271800000000     0.062579   
H        H      0.516400000000     0.405700000000     0.301500000000     0.062579   
H        H      0.500000000000     0.262300000000     0.382900000000     0.062579   
H        H      0.825900000000     0.528100000000     0.151100000000     0.062579   
H        H      0.661000000000     0.491700000000     0.144100000000     0.062579   
H        H      0.647600000000     0.632800000000     0.984100000000     0.062579   
H        H      0.812400000000     0.665600000000     0.995700000000     0.062579   
H        H      0.505600000000     0.487100000000     0.085400000000     0.062579   
H        H      0.192400000000     0.537000000000     0.133000000000     0.062579   
H        H      0.357000000000     0.517400000000     0.113700000000     0.062579   
H        H      0.325300000000     0.672500000000     0.960300000000     0.062579   
H        H      0.162100000000     0.690100000000     0.986200000000     0.062579   
H        H      0.493200000000     0.621200000000     0.991000000000     0.062579   
H        H      0.983000000000     0.861600000000     0.190200000000     0.062579   
H        H      0.994400000000     0.717300000000     0.271800000000     0.062579   
H        H      0.983600000000     0.905700000000     0.301500000000     0.062579   
H        H      0.000000000000     0.762300000000     0.382900000000     0.062579   
H        H      0.174100000000     0.028100000000     0.348900000000     0.062579   
H        H      0.339000000000     0.991700000000     0.355900000000     0.062579   
H        H      0.352400000000     0.132800000000     0.515900000000     0.062579   
H        H      0.187600000000     0.165600000000     0.504300000000     0.062579   
H        H      0.494400000000     0.987100000000     0.414600000000     0.062579   
H        H      0.807600000000     0.037000000000     0.367000000000     0.062579   
H        H      0.643000000000     0.017400000000     0.386300000000     0.062579   
H        H      0.674700000000     0.172500000000     0.539700000000     0.062579   
H        H      0.837900000000     0.190100000000     0.513800000000     0.062579   
H        H      0.506800000000     0.121200000000     0.509000000000     0.062579   
H        H      0.017000000000     0.361600000000     0.309800000000     0.062579   
H        H      0.005600000000     0.217300000000     0.228200000000     0.062579   
H        H      0.016400000000     0.405700000000     0.198500000000     0.062579   
H        H      0.000000000000     0.262300000000     0.117100000000     0.062579   
H        H      0.174100000000     0.471900000000     0.848900000000     0.062579   
H        H      0.339000000000     0.508300000000     0.855900000000     0.062579   
H        H      0.352400000000     0.367200000000     0.015900000000     0.062579   
H        H      0.187600000000     0.334400000000     0.004300000000     0.062579   
H        H      0.494400000000     0.512900000000     0.914600000000     0.062579   
H        H      0.807600000000     0.463000000000     0.867000000000     0.062579   
H        H      0.643000000000     0.482600000000     0.886300000000     0.062579   
H        H      0.674700000000     0.327500000000     0.039700000000     0.062579   
H        H      0.837900000000     0.309900000000     0.013800000000     0.062579   
H        H      0.506800000000     0.378800000000     0.009000000000     0.062579   
H        H      0.017000000000     0.138400000000     0.809800000000     0.062579   
H        H      0.005600000000     0.282700000000     0.728200000000     0.062579   
H        H      0.016400000000     0.094300000000     0.698500000000     0.062579   
H        H      0.000000000000     0.237700000000     0.617100000000     0.062579   
H        H      0.825900000000     0.971900000000     0.651100000000     0.062579   
H        H      0.661000000000     0.008300000000     0.644100000000     0.062579   
H        H      0.647600000000     0.867200000000     0.484100000000     0.062579   
H        H      0.812400000000     0.834400000000     0.495700000000     0.062579   
H        H      0.505600000000     0.012900000000     0.585400000000     0.062579   
H        H      0.192400000000     0.963000000000     0.633000000000     0.062579   
H        H      0.357000000000     0.982600000000     0.613700000000     0.062579   
H        H      0.325300000000     0.827500000000     0.460300000000     0.062579   
H        H      0.162100000000     0.809900000000     0.486200000000     0.062579   
H        H      0.493200000000     0.878800000000     0.491000000000     0.062579   
H        H      0.983000000000     0.638400000000     0.690200000000     0.062579   
H        H      0.994400000000     0.782700000000     0.771800000000     0.062579   
H        H      0.983600000000     0.594300000000     0.801500000000     0.062579   
H        H      0.000000000000     0.737700000000     0.882900000000     0.062579   
C        C      0.709800000000     0.452600000000     0.616200000000     0.011156   
C        C      0.809100000000     0.475100000000     0.612100000000     0.011156   
C        C      0.863900000000     0.448300000000     0.560300000000     0.011156   
C        C      0.817200000000     0.391800000000     0.517600000000     0.011156   
C        C      0.718100000000     0.372100000000     0.525000000000     0.011156   
C        C      0.963400000000     0.490000000000     0.546900000000     0.011156   
C        C      0.280800000000     0.436700000000     0.597000000000     0.011156   
C        C      0.181600000000     0.449500000000     0.585500000000     0.011156   
C        C      0.139400000000     0.412900000000     0.531800000000     0.011156   
C        C      0.200200000000     0.357600000000     0.495200000000     0.011156   
C        C      0.299000000000     0.347700000000     0.511200000000     0.011156   
C        C      0.038400000000     0.434500000000     0.506500000000     0.011156   
C        C      0.507600000000     0.268900000000     0.649800000000     0.011156   
C        C      0.512000000000     0.199500000000     0.701200000000     0.011156   
C        C      0.509100000000     0.221300000000     0.761300000000     0.011156   
C        C      0.511100000000     0.155400000000     0.812100000000     0.011156   
C        C      0.505800000000     0.176600000000     0.872100000000     0.011156   
C        C      0.508700000000     0.108600000000     0.923400000000     0.011156   
C        C      0.290200000000     0.952600000000     0.883800000000     0.011156   
C        C      0.190900000000     0.975100000000     0.887900000000     0.011156   
C        C      0.136100000000     0.948300000000     0.939700000000     0.011156   
C        C      0.182800000000     0.891800000000     0.982400000000     0.011156   
C        C      0.281900000000     0.872100000000     0.975000000000     0.011156   
C        C      0.036600000000     0.990000000000     0.953100000000     0.011156   
C        C      0.719200000000     0.936700000000     0.903000000000     0.011156   
C        C      0.818400000000     0.949500000000     0.914500000000     0.011156   
C        C      0.860600000000     0.912900000000     0.968200000000     0.011156   
C        C      0.799800000000     0.857600000000     0.004800000000     0.011156   
C        C      0.701000000000     0.847700000000     0.988800000000     0.011156   
C        C      0.961600000000     0.934500000000     0.993500000000     0.011156   
C        C      0.492400000000     0.768900000000     0.850200000000     0.011156   
C        C      0.488000000000     0.699500000000     0.798800000000     0.011156   
C        C      0.490900000000     0.721300000000     0.738700000000     0.011156   
C        C      0.488900000000     0.655400000000     0.687900000000     0.011156   
C        C      0.494200000000     0.676600000000     0.627900000000     0.011156   
C        C      0.491300000000     0.608600000000     0.576600000000     0.011156   
C        C      0.290200000000     0.547400000000     0.383800000000     0.011156   
C        C      0.190900000000     0.524900000000     0.387900000000     0.011156   
C        C      0.136100000000     0.551700000000     0.439700000000     0.011156   
C        C      0.182800000000     0.608200000000     0.482400000000     0.011156   
C        C      0.281900000000     0.627900000000     0.475000000000     0.011156   
C        C      0.036600000000     0.510000000000     0.453100000000     0.011156   
C        C      0.719200000000     0.563300000000     0.403000000000     0.011156   
C        C      0.818400000000     0.550500000000     0.414500000000     0.011156   
C        C      0.860600000000     0.587100000000     0.468200000000     0.011156   
C        C      0.799800000000     0.642400000000     0.504800000000     0.011156   
C        C      0.701000000000     0.652300000000     0.488800000000     0.011156   
C        C      0.961600000000     0.565500000000     0.493500000000     0.011156   
C        C      0.492400000000     0.731100000000     0.350200000000     0.011156   
C        C      0.488000000000     0.800500000000     0.298800000000     0.011156   
C        C      0.490900000000     0.778700000000     0.238700000000     0.011156   
C        C      0.488900000000     0.844600000000     0.187900000000     0.011156   
C        C      0.494200000000     0.823400000000     0.127900000000     0.011156   
C        C      0.491300000000     0.891400000000     0.076600000000     0.011156   
C        C      0.709800000000     0.047400000000     0.116200000000     0.011156   
C        C      0.809100000000     0.024900000000     0.112100000000     0.011156   
C        C      0.863900000000     0.051700000000     0.060300000000     0.011156   
C        C      0.817200000000     0.108200000000     0.017600000000     0.011156   
C        C      0.718100000000     0.127900000000     0.025000000000     0.011156   
C        C      0.963400000000     0.010000000000     0.046900000000     0.011156   
C        C      0.280800000000     0.063300000000     0.097000000000     0.011156   
C        C      0.181600000000     0.050500000000     0.085500000000     0.011156   
C        C      0.139400000000     0.087100000000     0.031800000000     0.011156   
C        C      0.200200000000     0.142400000000     0.995200000000     0.011156   
C        C      0.299000000000     0.152300000000     0.011200000000     0.011156   
C        C      0.038400000000     0.065500000000     0.006500000000     0.011156   
C        C      0.507600000000     0.231100000000     0.149800000000     0.011156   
C        C      0.512000000000     0.300500000000     0.201200000000     0.011156   
C        C      0.509100000000     0.278700000000     0.261300000000     0.011156   
C        C      0.511100000000     0.344600000000     0.312100000000     0.011156   
C        C      0.505800000000     0.323400000000     0.372100000000     0.011156   
C        C      0.508700000000     0.391400000000     0.423400000000     0.011156   
C        C      0.790200000000     0.547400000000     0.116200000000     0.011156   
C        C      0.690900000000     0.524900000000     0.112100000000     0.011156   
C        C      0.636100000000     0.551700000000     0.060300000000     0.011156   
C        C      0.682800000000     0.608200000000     0.017600000000     0.011156   
C        C      0.781900000000     0.627900000000     0.025000000000     0.011156   
C        C      0.536600000000     0.510000000000     0.046900000000     0.011156   
C        C      0.219200000000     0.563300000000     0.097000000000     0.011156   
C        C      0.318400000000     0.550500000000     0.085500000000     0.011156   
C        C      0.360600000000     0.587100000000     0.031800000000     0.011156   
C        C      0.299800000000     0.642400000000     0.995200000000     0.011156   
C        C      0.201000000000     0.652300000000     0.011200000000     0.011156   
C        C      0.461600000000     0.565500000000     0.006500000000     0.011156   
C        C      0.992400000000     0.731100000000     0.149800000000     0.011156   
C        C      0.988000000000     0.800500000000     0.201200000000     0.011156   
C        C      0.990900000000     0.778700000000     0.261300000000     0.011156   
C        C      0.988900000000     0.844600000000     0.312100000000     0.011156   
C        C      0.994200000000     0.823400000000     0.372100000000     0.011156   
C        C      0.991300000000     0.891400000000     0.423400000000     0.011156   
C        C      0.209800000000     0.047400000000     0.383800000000     0.011156   
C        C      0.309100000000     0.024900000000     0.387900000000     0.011156   
C        C      0.363900000000     0.051700000000     0.439700000000     0.011156   
C        C      0.317200000000     0.108200000000     0.482400000000     0.011156   
C        C      0.218100000000     0.127900000000     0.475000000000     0.011156   
C        C      0.463400000000     0.010000000000     0.453100000000     0.011156   
C        C      0.780800000000     0.063300000000     0.403000000000     0.011156   
C        C      0.681600000000     0.050500000000     0.414500000000     0.011156   
C        C      0.639400000000     0.087100000000     0.468200000000     0.011156   
C        C      0.700200000000     0.142400000000     0.504800000000     0.011156   
C        C      0.799000000000     0.152300000000     0.488800000000     0.011156   
C        C      0.538400000000     0.065500000000     0.493500000000     0.011156   
C        C      0.007600000000     0.231100000000     0.350200000000     0.011156   
C        C      0.012000000000     0.300500000000     0.298800000000     0.011156   
C        C      0.009100000000     0.278700000000     0.238700000000     0.011156   
C        C      0.011100000000     0.344600000000     0.187900000000     0.011156   
C        C      0.005800000000     0.323400000000     0.127900000000     0.011156   
C        C      0.008700000000     0.391400000000     0.076600000000     0.011156   
C        C      0.209800000000     0.452600000000     0.883800000000     0.011156   
C        C      0.309100000000     0.475100000000     0.887900000000     0.011156   
C        C      0.363900000000     0.448300000000     0.939700000000     0.011156   
C        C      0.317200000000     0.391800000000     0.982400000000     0.011156   
C        C      0.218100000000     0.372100000000     0.975000000000     0.011156   
C        C      0.463400000000     0.490000000000     0.953100000000     0.011156   
C        C      0.780800000000     0.436700000000     0.903000000000     0.011156   
C        C      0.681600000000     0.449500000000     0.914500000000     0.011156   
C        C      0.639400000000     0.412900000000     0.968200000000     0.011156   
C        C      0.700200000000     0.357600000000     0.004800000000     0.011156   
C        C      0.799000000000     0.347700000000     0.988800000000     0.011156   
C        C      0.538400000000     0.434500000000     0.993500000000     0.011156   
C        C      0.007600000000     0.268900000000     0.850200000000     0.011156   
C        C      0.012000000000     0.199500000000     0.798800000000     0.011156   
C        C      0.009100000000     0.221300000000     0.738700000000     0.011156   
C        C      0.011100000000     0.155400000000     0.687900000000     0.011156   
C        C      0.005800000000     0.176600000000     0.627900000000     0.011156   
C        C      0.008700000000     0.108600000000     0.576600000000     0.011156   
C        C      0.790200000000     0.952600000000     0.616200000000     0.011156   
C        C      0.690900000000     0.975100000000     0.612100000000     0.011156   
C        C      0.636100000000     0.948300000000     0.560300000000     0.011156   
C        C      0.682800000000     0.891800000000     0.517600000000     0.011156   
C        C      0.781900000000     0.872100000000     0.525000000000     0.011156   
C        C      0.536600000000     0.990000000000     0.546900000000     0.011156   
C        C      0.219200000000     0.936700000000     0.597000000000     0.011156   
C        C      0.318400000000     0.949500000000     0.585500000000     0.011156   
C        C      0.360600000000     0.912900000000     0.531800000000     0.011156   
C        C      0.299800000000     0.857600000000     0.495200000000     0.011156   
C        C      0.201000000000     0.847700000000     0.511200000000     0.011156   
C        C      0.461600000000     0.934500000000     0.506500000000     0.011156   
C        C      0.992400000000     0.768900000000     0.649800000000     0.011156   
C        C      0.988000000000     0.699500000000     0.701200000000     0.011156   
C        C      0.990900000000     0.721300000000     0.761300000000     0.011156   
C        C      0.988900000000     0.655400000000     0.812100000000     0.011156   
C        C      0.994200000000     0.676600000000     0.872100000000     0.011156   
C        C      0.991300000000     0.608600000000     0.923400000000     0.011156   
N        N      0.663600000000     0.405000000000     0.572800000000    -0.159602   
N        N      0.341800000000     0.388400000000     0.559600000000    -0.159602   
N        N      0.336400000000     0.905000000000     0.927200000000    -0.159602   
N        N      0.658200000000     0.888400000000     0.940400000000    -0.159602   
N        N      0.336400000000     0.595000000000     0.427200000000    -0.159602   
N        N      0.658200000000     0.611600000000     0.440400000000    -0.159602   
N        N      0.663600000000     0.095000000000     0.072800000000    -0.159602   
N        N      0.341800000000     0.111600000000     0.059600000000    -0.159602   
N        N      0.836400000000     0.595000000000     0.072800000000    -0.159602   
N        N      0.158200000000     0.611600000000     0.059600000000    -0.159602   
N        N      0.163600000000     0.095000000000     0.427200000000    -0.159602   
N        N      0.841800000000     0.111600000000     0.440400000000    -0.159602   
N        N      0.163600000000     0.405000000000     0.927200000000    -0.159602   
N        N      0.841800000000     0.388400000000     0.940400000000    -0.159602   
N        N      0.836400000000     0.905000000000     0.572800000000    -0.159602   
N        N      0.158200000000     0.888400000000     0.559600000000    -0.159602   
O        O      0.498900000000     0.352000000000     0.663640000000    -0.305094   
O        O      0.511100000000     0.242000000000     0.594300000000    -0.305094   
O        O      0.513300000000     0.142100000000     0.977440000000    -0.305094   
O        O      0.507900000000     0.027700000000     0.908800000000    -0.305094   
O        O      0.501100000000     0.852000000000     0.836360000000    -0.305094   
O        O      0.488900000000     0.742000000000     0.905700000000    -0.305094   
O        O      0.486700000000     0.642100000000     0.522560000000    -0.305094   
O        O      0.492100000000     0.527700000000     0.591200000000    -0.305094   
O        O      0.501100000000     0.648000000000     0.336360000000    -0.305094   
O        O      0.488900000000     0.758000000000     0.405700000000    -0.305094   
O        O      0.486700000000     0.857900000000     0.022560000000    -0.305094   
O        O      0.492100000000     0.972300000000     0.091200000000    -0.305094   
O        O      0.498900000000     0.148000000000     0.163640000000    -0.305094   
O        O      0.511100000000     0.258000000000     0.094300000000    -0.305094   
O        O      0.513300000000     0.357900000000     0.477440000000    -0.305094   
O        O      0.507900000000     0.472300000000     0.408800000000    -0.305094   
O        O      0.001100000000     0.648000000000     0.163640000000    -0.305094   
O        O      0.988900000000     0.758000000000     0.094300000000    -0.305094   
O        O      0.986700000000     0.857900000000     0.477440000000    -0.305094   
O        O      0.992100000000     0.972300000000     0.408800000000    -0.305094   
O        O      0.998900000000     0.148000000000     0.336360000000    -0.305094   
O        O      0.011100000000     0.258000000000     0.405700000000    -0.305094   
O        O      0.013300000000     0.357900000000     0.022560000000    -0.305094   
O        O      0.007900000000     0.472300000000     0.091200000000    -0.305094   
O        O      0.998900000000     0.352000000000     0.836360000000    -0.305094   
O        O      0.011100000000     0.242000000000     0.905700000000    -0.305094   
O        O      0.013300000000     0.142100000000     0.522560000000    -0.305094   
O        O      0.007900000000     0.027700000000     0.591200000000    -0.305094   
O        O      0.001100000000     0.852000000000     0.663640000000    -0.305094   
O        O      0.988900000000     0.742000000000     0.594300000000    -0.305094   
O        O      0.986700000000     0.642100000000     0.977440000000    -0.305094   
O        O      0.992100000000     0.527700000000     0.908800000000    -0.305094   


