data_SULKIU_original

_audit_creation_method RASPA-1.0
_audit_creation_date 2022-1-30
_audit_author_name 'Felipe Lopes de Oliveira <felipe.lopes.oliveira@ibm.com>'

_cell_length_a    16.615
_cell_length_b    17.252
_cell_length_c    20.596
_cell_angle_alpha 90
_cell_angle_beta  90
_cell_angle_gamma 98.079
_cell_volume      5845.09

_symmetry_cell_setting          triclinic
_symmetry_space_group_name_Hall 'P 1'
_symmetry_space_group_name_H-M  'P 1'
_symmetry_Int_Tables_number     1

_symmetry_equiv_pos_as_xyz 'x,y,z'

loop_
_atom_site_label
_atom_site_type_symbol
_atom_site_fract_x
_atom_site_fract_y
_atom_site_fract_z
_atom_site_charge
Zn       Zn     0.094670000000     0.939520000000     0.848650000000     0.474228   
Zn       Zn     0.980220000000     0.746450000000     0.827410000000     0.474228   
Zn       Zn     0.383810000000     0.051310000000     0.637590000000     0.474228   
Zn       Zn     0.405330000000     0.560480000000     0.348650000000     0.474228   
Zn       Zn     0.519780000000     0.753550000000     0.327410000000     0.474228   
Zn       Zn     0.116190000000     0.448690000000     0.137590000000     0.474228   
Zn       Zn     0.905330000000     0.060480000000     0.151350000000     0.474228   
Zn       Zn     0.019780000000     0.253550000000     0.172590000000     0.474228   
Zn       Zn     0.616190000000     0.948690000000     0.362410000000     0.474228   
Zn       Zn     0.594670000000     0.439520000000     0.651350000000     0.474228   
Zn       Zn     0.480220000000     0.246450000000     0.672590000000     0.474228   
Zn       Zn     0.883810000000     0.551310000000     0.862410000000     0.474228   
H        H      0.304600000000     0.858800000000     0.918700000000     0.064488   
H        H      0.419700000000     0.801800000000     0.940800000000     0.064488   
H        H      0.303500000000     0.593700000000     0.884000000000     0.064488   
H        H      0.190200000000     0.651200000000     0.859700000000     0.064488   
H        H      0.517700000000     0.745500000000     0.037000000000     0.064488   
H        H      0.516300000000     0.732500000000     0.149200000000     0.064488   
H        H      0.387100000000     0.521200000000     0.133800000000     0.064488   
H        H      0.388800000000     0.531200000000     0.022500000000     0.064488   
H        H      0.567500000000     0.159500000000     0.847600000000     0.064488   
H        H      0.614200000000     0.109800000000     0.942400000000     0.064488   
H        H      0.534900000000     0.891700000000     0.880100000000     0.064488   
H        H      0.486800000000     0.942900000000     0.786300000000     0.064488   
H        H      0.898600000000     0.028400000000     0.959700000000     0.064488   
H        H      0.810600000000     0.808300000000     0.911200000000     0.064488   
H        H      0.681600000000     0.829100000000     0.941700000000     0.064488   
H        H      0.741900000000     0.811400000000     0.788700000000     0.064488   
H        H      0.615700000000     0.837100000000     0.755800000000     0.064488   
H        H      0.535700000000     0.605700000000     0.752900000000     0.064488   
H        H      0.661500000000     0.582000000000     0.789500000000     0.064488   
H        H      0.509500000000     0.893300000000     0.673000000000     0.064488   
H        H      0.542300000000     0.940500000000     0.569000000000     0.064488   
H        H      0.491300000000     0.723100000000     0.498100000000     0.064488   
H        H      0.460100000000     0.675800000000     0.601400000000     0.064488   
H        H      0.769900000000     0.048500000000     0.996400000000     0.064488   
H        H      0.195400000000     0.641200000000     0.418700000000     0.064488   
H        H      0.080300000000     0.698200000000     0.440800000000     0.064488   
H        H      0.196500000000     0.906300000000     0.384000000000     0.064488   
H        H      0.309800000000     0.848800000000     0.359700000000     0.064488   
H        H      0.982300000000     0.754500000000     0.537000000000     0.064488   
H        H      0.983700000000     0.767500000000     0.649200000000     0.064488   
H        H      0.112900000000     0.978800000000     0.633800000000     0.064488   
H        H      0.111200000000     0.968800000000     0.522500000000     0.064488   
H        H      0.932500000000     0.340500000000     0.347600000000     0.064488   
H        H      0.885800000000     0.390200000000     0.442400000000     0.064488   
H        H      0.965100000000     0.608300000000     0.380100000000     0.064488   
H        H      0.013200000000     0.557100000000     0.286300000000     0.064488   
H        H      0.601400000000     0.471600000000     0.459700000000     0.064488   
H        H      0.689400000000     0.691700000000     0.411200000000     0.064488   
H        H      0.818400000000     0.670900000000     0.441700000000     0.064488   
H        H      0.758100000000     0.688600000000     0.288700000000     0.064488   
H        H      0.884300000000     0.662900000000     0.255800000000     0.064488   
H        H      0.964300000000     0.894300000000     0.252900000000     0.064488   
H        H      0.838500000000     0.918000000000     0.289500000000     0.064488   
H        H      0.990500000000     0.606700000000     0.173000000000     0.064488   
H        H      0.957700000000     0.559500000000     0.069000000000     0.064488   
H        H      0.008700000000     0.776900000000     0.998100000000     0.064488   
H        H      0.039900000000     0.824200000000     0.101400000000     0.064488   
H        H      0.730100000000     0.451500000000     0.496400000000     0.064488   
H        H      0.695400000000     0.141200000000     0.081300000000     0.064488   
H        H      0.580300000000     0.198200000000     0.059200000000     0.064488   
H        H      0.696500000000     0.406300000000     0.116000000000     0.064488   
H        H      0.809800000000     0.348800000000     0.140300000000     0.064488   
H        H      0.482300000000     0.254500000000     0.963000000000     0.064488   
H        H      0.483700000000     0.267500000000     0.850800000000     0.064488   
H        H      0.612900000000     0.478800000000     0.866200000000     0.064488   
H        H      0.611200000000     0.468800000000     0.977500000000     0.064488   
H        H      0.432500000000     0.840500000000     0.152400000000     0.064488   
H        H      0.385800000000     0.890200000000     0.057600000000     0.064488   
H        H      0.465100000000     0.108300000000     0.119900000000     0.064488   
H        H      0.513200000000     0.057100000000     0.213700000000     0.064488   
H        H      0.101400000000     0.971600000000     0.040300000000     0.064488   
H        H      0.189400000000     0.191700000000     0.088800000000     0.064488   
H        H      0.318400000000     0.170900000000     0.058300000000     0.064488   
H        H      0.258100000000     0.188600000000     0.211300000000     0.064488   
H        H      0.384300000000     0.162900000000     0.244200000000     0.064488   
H        H      0.464300000000     0.394300000000     0.247100000000     0.064488   
H        H      0.338500000000     0.418000000000     0.210500000000     0.064488   
H        H      0.490500000000     0.106700000000     0.327000000000     0.064488   
H        H      0.457700000000     0.059500000000     0.431000000000     0.064488   
H        H      0.508700000000     0.276900000000     0.501900000000     0.064488   
H        H      0.539900000000     0.324200000000     0.398600000000     0.064488   
H        H      0.230100000000     0.951500000000     0.003600000000     0.064488   
H        H      0.804600000000     0.358800000000     0.581300000000     0.064488   
H        H      0.919700000000     0.301800000000     0.559200000000     0.064488   
H        H      0.803500000000     0.093700000000     0.616000000000     0.064488   
H        H      0.690200000000     0.151200000000     0.640300000000     0.064488   
H        H      0.017700000000     0.245500000000     0.463000000000     0.064488   
H        H      0.016300000000     0.232500000000     0.350800000000     0.064488   
H        H      0.887100000000     0.021200000000     0.366200000000     0.064488   
H        H      0.888800000000     0.031200000000     0.477500000000     0.064488   
H        H      0.067500000000     0.659500000000     0.652400000000     0.064488   
H        H      0.114200000000     0.609800000000     0.557600000000     0.064488   
H        H      0.034900000000     0.391700000000     0.619900000000     0.064488   
H        H      0.986800000000     0.442900000000     0.713700000000     0.064488   
H        H      0.398600000000     0.528400000000     0.540300000000     0.064488   
H        H      0.310600000000     0.308300000000     0.588800000000     0.064488   
H        H      0.181600000000     0.329100000000     0.558300000000     0.064488   
H        H      0.241900000000     0.311400000000     0.711300000000     0.064488   
H        H      0.115700000000     0.337100000000     0.744200000000     0.064488   
H        H      0.035700000000     0.105700000000     0.747100000000     0.064488   
H        H      0.161500000000     0.082000000000     0.710500000000     0.064488   
H        H      0.009500000000     0.393300000000     0.827000000000     0.064488   
H        H      0.042300000000     0.440500000000     0.931000000000     0.064488   
H        H      0.991300000000     0.223100000000     0.001900000000     0.064488   
H        H      0.960100000000     0.175800000000     0.898600000000     0.064488   
H        H      0.269900000000     0.548500000000     0.503600000000     0.064488   
C        C      0.160600000000     0.797700000000     0.870700000000     0.024109   
C        C      0.235200000000     0.760600000000     0.887400000000     0.024109   
C        C      0.304300000000     0.805500000000     0.911500000000     0.024109   
C        C      0.373100000000     0.771500000000     0.924900000000     0.024109   
C        C      0.372200000000     0.693000000000     0.914800000000     0.024109   
C        C      0.303700000000     0.647000000000     0.890600000000     0.024109   
C        C      0.236100000000     0.681500000000     0.876700000000     0.024109   
C        C      0.455000000000     0.638700000000     0.019200000000     0.024109   
C        C      0.492100000000     0.699900000000     0.056400000000     0.024109   
C        C      0.490700000000     0.691900000000     0.123600000000     0.024109   
C        C      0.452200000000     0.625600000000     0.152900000000     0.024109   
C        C      0.414000000000     0.566200000000     0.114300000000     0.024109   
C        C      0.414900000000     0.571800000000     0.047900000000     0.024109   
C        C      0.455100000000     0.620300000000     0.226000000000     0.024109   
C        C      0.491400000000     0.089400000000     0.746400000000     0.024109   
C        C      0.522800000000     0.055900000000     0.807400000000     0.024109   
C        C      0.560800000000     0.105700000000     0.854300000000     0.024109   
C        C      0.588900000000     0.076300000000     0.910800000000     0.024109   
C        C      0.578800000000     0.996200000000     0.919600000000     0.024109   
C        C      0.541100000000     0.945500000000     0.873500000000     0.024109   
C        C      0.512900000000     0.976300000000     0.817600000000     0.024109   
C        C      0.714100000000     0.941200000000     0.970400000000     0.024109   
C        C      0.854800000000     0.988500000000     0.956300000000     0.024109   
C        C      0.866100000000     0.917600000000     0.930300000000     0.024109   
C        C      0.801800000000     0.857100000000     0.926600000000     0.024109   
C        C      0.725200000000     0.869000000000     0.945500000000     0.024109   
C        C      0.947100000000     0.904200000000     0.903600000000     0.024109   
C        C      0.796700000000     0.677400000000     0.813300000000     0.024109   
C        C      0.714700000000     0.694100000000     0.792200000000     0.024109   
C        C      0.700200000000     0.770200000000     0.782000000000     0.024109   
C        C      0.625100000000     0.785800000000     0.762300000000     0.024109   
C        C      0.563300000000     0.724100000000     0.752300000000     0.024109   
C        C      0.576700000000     0.647000000000     0.761000000000     0.024109   
C        C      0.652400000000     0.633200000000     0.782000000000     0.024109   
C        C      0.484100000000     0.780000000000     0.646800000000     0.024109   
C        C      0.506900000000     0.859100000000     0.637900000000     0.024109   
C        C      0.526000000000     0.887300000000     0.575600000000     0.024109   
C        C      0.520800000000     0.836400000000     0.523800000000     0.024109   
C        C      0.495600000000     0.757200000000     0.533300000000     0.024109   
C        C      0.477100000000     0.728900000000     0.594900000000     0.024109   
C        C      0.545200000000     0.866400000000     0.456900000000     0.024109   
C        C      0.777900000000     0.001100000000     0.977700000000     0.024109   
C        C      0.339400000000     0.702300000000     0.370700000000     0.024109   
C        C      0.264800000000     0.739400000000     0.387400000000     0.024109   
C        C      0.195700000000     0.694500000000     0.411500000000     0.024109   
C        C      0.126900000000     0.728500000000     0.424900000000     0.024109   
C        C      0.127800000000     0.807000000000     0.414800000000     0.024109   
C        C      0.196300000000     0.853000000000     0.390600000000     0.024109   
C        C      0.263900000000     0.818500000000     0.376700000000     0.024109   
C        C      0.045000000000     0.861300000000     0.519200000000     0.024109   
C        C      0.007900000000     0.800100000000     0.556400000000     0.024109   
C        C      0.009300000000     0.808100000000     0.623600000000     0.024109   
C        C      0.047800000000     0.874400000000     0.652900000000     0.024109   
C        C      0.086000000000     0.933800000000     0.614300000000     0.024109   
C        C      0.085100000000     0.928200000000     0.547900000000     0.024109   
C        C      0.044900000000     0.879700000000     0.726000000000     0.024109   
C        C      0.008600000000     0.410600000000     0.246400000000     0.024109   
C        C      0.977200000000     0.444100000000     0.307400000000     0.024109   
C        C      0.939200000000     0.394300000000     0.354300000000     0.024109   
C        C      0.911100000000     0.423700000000     0.410800000000     0.024109   
C        C      0.921200000000     0.503800000000     0.419600000000     0.024109   
C        C      0.958900000000     0.554500000000     0.373500000000     0.024109   
C        C      0.987100000000     0.523700000000     0.317600000000     0.024109   
C        C      0.785900000000     0.558800000000     0.470400000000     0.024109   
C        C      0.645200000000     0.511500000000     0.456300000000     0.024109   
C        C      0.633900000000     0.582400000000     0.430300000000     0.024109   
C        C      0.698200000000     0.642900000000     0.426600000000     0.024109   
C        C      0.774800000000     0.631000000000     0.445500000000     0.024109   
C        C      0.552900000000     0.595800000000     0.403600000000     0.024109   
C        C      0.703300000000     0.822600000000     0.313300000000     0.024109   
C        C      0.785300000000     0.805900000000     0.292200000000     0.024109   
C        C      0.799800000000     0.729800000000     0.282000000000     0.024109   
C        C      0.874900000000     0.714200000000     0.262300000000     0.024109   
C        C      0.936700000000     0.775900000000     0.252300000000     0.024109   
C        C      0.923300000000     0.853000000000     0.261000000000     0.024109   
C        C      0.847600000000     0.866800000000     0.282000000000     0.024109   
C        C      0.015900000000     0.720000000000     0.146800000000     0.024109   
C        C      0.993100000000     0.640900000000     0.137900000000     0.024109   
C        C      0.974000000000     0.612700000000     0.075600000000     0.024109   
C        C      0.979200000000     0.663600000000     0.023800000000     0.024109   
C        C      0.004400000000     0.742800000000     0.033300000000     0.024109   
C        C      0.022900000000     0.771100000000     0.094900000000     0.024109   
C        C      0.954800000000     0.633600000000     0.956900000000     0.024109   
C        C      0.722100000000     0.498900000000     0.477700000000     0.024109   
C        C      0.839400000000     0.202300000000     0.129300000000     0.024109   
C        C      0.764800000000     0.239400000000     0.112600000000     0.024109   
C        C      0.695700000000     0.194500000000     0.088500000000     0.024109   
C        C      0.626900000000     0.228500000000     0.075100000000     0.024109   
C        C      0.627800000000     0.307000000000     0.085200000000     0.024109   
C        C      0.696300000000     0.353000000000     0.109400000000     0.024109   
C        C      0.763900000000     0.318500000000     0.123300000000     0.024109   
C        C      0.545000000000     0.361300000000     0.980800000000     0.024109   
C        C      0.507900000000     0.300100000000     0.943600000000     0.024109   
C        C      0.509300000000     0.308100000000     0.876400000000     0.024109   
C        C      0.547800000000     0.374400000000     0.847100000000     0.024109   
C        C      0.586000000000     0.433800000000     0.885700000000     0.024109   
C        C      0.585100000000     0.428200000000     0.952100000000     0.024109   
C        C      0.544900000000     0.379700000000     0.774000000000     0.024109   
C        C      0.508600000000     0.910600000000     0.253600000000     0.024109   
C        C      0.477200000000     0.944100000000     0.192600000000     0.024109   
C        C      0.439200000000     0.894300000000     0.145700000000     0.024109   
C        C      0.411100000000     0.923700000000     0.089200000000     0.024109   
C        C      0.421200000000     0.003800000000     0.080400000000     0.024109   
C        C      0.458900000000     0.054500000000     0.126500000000     0.024109   
C        C      0.487100000000     0.023700000000     0.182400000000     0.024109   
C        C      0.285900000000     0.058800000000     0.029600000000     0.024109   
C        C      0.145200000000     0.011500000000     0.043700000000     0.024109   
C        C      0.133900000000     0.082400000000     0.069700000000     0.024109   
C        C      0.198200000000     0.142900000000     0.073400000000     0.024109   
C        C      0.274800000000     0.131000000000     0.054500000000     0.024109   
C        C      0.052900000000     0.095800000000     0.096400000000     0.024109   
C        C      0.203300000000     0.322600000000     0.186700000000     0.024109   
C        C      0.285300000000     0.305900000000     0.207800000000     0.024109   
C        C      0.299800000000     0.229800000000     0.218000000000     0.024109   
C        C      0.374900000000     0.214200000000     0.237700000000     0.024109   
C        C      0.436700000000     0.275900000000     0.247700000000     0.024109   
C        C      0.423300000000     0.353000000000     0.239000000000     0.024109   
C        C      0.347600000000     0.366800000000     0.218000000000     0.024109   
C        C      0.515900000000     0.220000000000     0.353200000000     0.024109   
C        C      0.493100000000     0.140900000000     0.362100000000     0.024109   
C        C      0.474000000000     0.112700000000     0.424400000000     0.024109   
C        C      0.479200000000     0.163600000000     0.476200000000     0.024109   
C        C      0.504400000000     0.242800000000     0.466700000000     0.024109   
C        C      0.522900000000     0.271100000000     0.405100000000     0.024109   
C        C      0.454800000000     0.133600000000     0.543100000000     0.024109   
C        C      0.222100000000     0.998900000000     0.022300000000     0.024109   
C        C      0.660600000000     0.297700000000     0.629300000000     0.024109   
C        C      0.735200000000     0.260600000000     0.612600000000     0.024109   
C        C      0.804300000000     0.305500000000     0.588500000000     0.024109   
C        C      0.873100000000     0.271500000000     0.575100000000     0.024109   
C        C      0.872200000000     0.193000000000     0.585200000000     0.024109   
C        C      0.803700000000     0.147000000000     0.609400000000     0.024109   
C        C      0.736100000000     0.181500000000     0.623300000000     0.024109   
C        C      0.955000000000     0.138700000000     0.480800000000     0.024109   
C        C      0.992100000000     0.199900000000     0.443600000000     0.024109   
C        C      0.990700000000     0.191900000000     0.376400000000     0.024109   
C        C      0.952200000000     0.125600000000     0.347100000000     0.024109   
C        C      0.914000000000     0.066200000000     0.385700000000     0.024109   
C        C      0.914900000000     0.071800000000     0.452100000000     0.024109   
C        C      0.955100000000     0.120300000000     0.274000000000     0.024109   
C        C      0.991400000000     0.589400000000     0.753600000000     0.024109   
C        C      0.022800000000     0.555900000000     0.692600000000     0.024109   
C        C      0.060800000000     0.605700000000     0.645700000000     0.024109   
C        C      0.088900000000     0.576300000000     0.589200000000     0.024109   
C        C      0.078800000000     0.496200000000     0.580400000000     0.024109   
C        C      0.041100000000     0.445500000000     0.626500000000     0.024109   
C        C      0.012900000000     0.476300000000     0.682400000000     0.024109   
C        C      0.214100000000     0.441200000000     0.529600000000     0.024109   
C        C      0.354800000000     0.488500000000     0.543700000000     0.024109   
C        C      0.366100000000     0.417600000000     0.569700000000     0.024109   
C        C      0.301800000000     0.357100000000     0.573400000000     0.024109   
C        C      0.225200000000     0.369000000000     0.554500000000     0.024109   
C        C      0.447100000000     0.404200000000     0.596400000000     0.024109   
C        C      0.296700000000     0.177400000000     0.686700000000     0.024109   
C        C      0.214700000000     0.194100000000     0.707800000000     0.024109   
C        C      0.200200000000     0.270200000000     0.718000000000     0.024109   
C        C      0.125100000000     0.285800000000     0.737700000000     0.024109   
C        C      0.063300000000     0.224100000000     0.747700000000     0.024109   
C        C      0.076700000000     0.147000000000     0.739000000000     0.024109   
C        C      0.152400000000     0.133200000000     0.718000000000     0.024109   
C        C      0.984100000000     0.280000000000     0.853200000000     0.024109   
C        C      0.006900000000     0.359100000000     0.862100000000     0.024109   
C        C      0.026000000000     0.387300000000     0.924400000000     0.024109   
C        C      0.020800000000     0.336400000000     0.976200000000     0.024109   
C        C      0.995600000000     0.257200000000     0.966700000000     0.024109   
C        C      0.977100000000     0.228900000000     0.905100000000     0.024109   
C        C      0.045200000000     0.366400000000     0.043100000000     0.024109   
C        C      0.277900000000     0.501100000000     0.522300000000     0.024109   
S        S      0.459200000000     0.649110000000     0.933560000000     0.278373   
S        S      0.615130000000     0.957390000000     0.991540000000     0.278373   
S        S      0.466410000000     0.743240000000     0.726790000000     0.278373   
S        S      0.040800000000     0.850890000000     0.433560000000     0.278373   
S        S      0.884870000000     0.542610000000     0.491540000000     0.278373   
S        S      0.033590000000     0.756760000000     0.226790000000     0.278373   
S        S      0.540800000000     0.350890000000     0.066440000000     0.278373   
S        S      0.384870000000     0.042610000000     0.008460000000     0.278373   
S        S      0.533590000000     0.256760000000     0.273210000000     0.278373   
S        S      0.959200000000     0.149110000000     0.566440000000     0.278373   
S        S      0.115130000000     0.457390000000     0.508460000000     0.278373   
S        S      0.966410000000     0.243240000000     0.773210000000     0.278373   
O        O      0.163300000000     0.869000000000     0.885600000000    -0.267672   
O        O      0.104300000000     0.757200000000     0.842400000000    -0.267672   
O        O      0.529700000000     0.704100000000     0.918000000000    -0.267672   
O        O      0.448400000000     0.571700000000     0.905800000000    -0.267672   
O        O      0.503700000000     0.670100000000     0.253860000000    -0.267672   
O        O      0.409300000000     0.566000000000     0.253600000000    -0.267672   
O        O      0.495200000000     0.161000000000     0.741100000000    -0.267672   
O        O      0.460800000000     0.038900000000     0.705000000000    -0.267672   
O        O      0.621200000000     0.017300000000     0.040380000000    -0.267672   
O        O      0.567900000000     0.883000000000     0.003690000000    -0.267672   
O        O      0.997200000000     0.963700000000     0.891400000000    -0.267672   
O        O      0.960400000000     0.835500000000     0.894800000000    -0.267672   
O        O      0.855000000000     0.732000000000     0.810480000000    -0.267672   
O        O      0.799300000000     0.607900000000     0.831200000000    -0.267672   
O        O      0.443600000000     0.805100000000     0.766170000000    -0.267672   
O        O      0.413400000000     0.670600000000     0.723100000000    -0.267672   
O        O      0.581400000000     0.935300000000     0.452500000000    -0.267672   
O        O      0.530600000000     0.824300000000     0.410000000000    -0.267672   
O        O      0.336700000000     0.631000000000     0.385600000000    -0.267672   
O        O      0.395700000000     0.742800000000     0.342400000000    -0.267672   
O        O      0.970300000000     0.795900000000     0.418000000000    -0.267672   
O        O      0.051600000000     0.928300000000     0.405800000000    -0.267672   
O        O      0.996300000000     0.829900000000     0.753860000000    -0.267672   
O        O      0.090700000000     0.934000000000     0.753600000000    -0.267672   
O        O      0.004800000000     0.339000000000     0.241100000000    -0.267672   
O        O      0.039200000000     0.461100000000     0.205000000000    -0.267672   
O        O      0.878800000000     0.482700000000     0.540380000000    -0.267672   
O        O      0.932100000000     0.617000000000     0.503690000000    -0.267672   
O        O      0.502800000000     0.536300000000     0.391400000000    -0.267672   
O        O      0.539600000000     0.664500000000     0.394800000000    -0.267672   
O        O      0.645000000000     0.768000000000     0.310480000000    -0.267672   
O        O      0.700700000000     0.892100000000     0.331200000000    -0.267672   
O        O      0.056400000000     0.694900000000     0.266170000000    -0.267672   
O        O      0.086600000000     0.829400000000     0.223100000000    -0.267672   
O        O      0.918600000000     0.564700000000     0.952500000000    -0.267672   
O        O      0.969400000000     0.675700000000     0.910000000000    -0.267672   
O        O      0.836700000000     0.131000000000     0.114400000000    -0.267672   
O        O      0.895700000000     0.242800000000     0.157600000000    -0.267672   
O        O      0.470300000000     0.295900000000     0.082000000000    -0.267672   
O        O      0.551600000000     0.428300000000     0.094200000000    -0.267672   
O        O      0.496300000000     0.329900000000     0.746140000000    -0.267672   
O        O      0.590700000000     0.434000000000     0.746400000000    -0.267672   
O        O      0.504800000000     0.839000000000     0.258900000000    -0.267672   
O        O      0.539200000000     0.961100000000     0.295000000000    -0.267672   
O        O      0.378800000000     0.982700000000     0.959620000000    -0.267672   
O        O      0.432100000000     0.117000000000     0.996310000000    -0.267672   
O        O      0.002800000000     0.036300000000     0.108600000000    -0.267672   
O        O      0.039600000000     0.164500000000     0.105200000000    -0.267672   
O        O      0.145000000000     0.268000000000     0.189520000000    -0.267672   
O        O      0.200700000000     0.392100000000     0.168800000000    -0.267672   
O        O      0.556400000000     0.194900000000     0.233830000000    -0.267672   
O        O      0.586600000000     0.329400000000     0.276900000000    -0.267672   
O        O      0.418600000000     0.064700000000     0.547500000000    -0.267672   
O        O      0.469400000000     0.175700000000     0.590000000000    -0.267672   
O        O      0.663300000000     0.369000000000     0.614400000000    -0.267672   
O        O      0.604300000000     0.257200000000     0.657600000000    -0.267672   
O        O      0.029700000000     0.204100000000     0.582000000000    -0.267672   
O        O      0.948400000000     0.071700000000     0.594200000000    -0.267672   
O        O      0.003700000000     0.170100000000     0.246140000000    -0.267672   
O        O      0.909300000000     0.066000000000     0.246400000000    -0.267672   
O        O      0.995200000000     0.661000000000     0.758900000000    -0.267672   
O        O      0.960800000000     0.538900000000     0.795000000000    -0.267672   
O        O      0.121200000000     0.517300000000     0.459620000000    -0.267672   
O        O      0.067900000000     0.383000000000     0.496310000000    -0.267672   
O        O      0.497200000000     0.463700000000     0.608600000000    -0.267672   
O        O      0.460400000000     0.335500000000     0.605200000000    -0.267672   
O        O      0.355000000000     0.232000000000     0.689520000000    -0.267672   
O        O      0.299300000000     0.107900000000     0.668800000000    -0.267672   
O        O      0.943600000000     0.305100000000     0.733830000000    -0.267672   
O        O      0.913400000000     0.170600000000     0.776900000000    -0.267672   
O        O      0.081400000000     0.435300000000     0.047500000000    -0.267672   
O        O      0.030600000000     0.324300000000     0.090000000000    -0.267672   


