data_TATPOV_original

_audit_creation_method RASPA-1.0
_audit_creation_date 2022-1-29
_audit_author_name 'Felipe Lopes de Oliveira <felipe.lopes.oliveira@ibm.com>'

_cell_length_a    10.5236
_cell_length_b    25.768
_cell_length_c    25.9507
_cell_angle_alpha 90
_cell_angle_beta  90
_cell_angle_gamma 90
_cell_volume      7037.11

_symmetry_cell_setting          triclinic
_symmetry_space_group_name_Hall 'P 1'
_symmetry_space_group_name_H-M  'P 1'
_symmetry_Int_Tables_number     1

_symmetry_equiv_pos_as_xyz 'x,y,z'

loop_
_atom_site_label
_atom_site_type_symbol
_atom_site_fract_x
_atom_site_fract_y
_atom_site_fract_z
_atom_site_charge
Zn       Zn     0.437840000000     0.421530000000     0.131480000000     0.452721   
Zn       Zn     0.201210000000     0.503890000000     0.111230000000     0.452721   
Zn       Zn     0.937840000000     0.578470000000     0.368520000000     0.452721   
Zn       Zn     0.701210000000     0.496110000000     0.388770000000     0.452721   
Zn       Zn     0.562160000000     0.921530000000     0.868520000000     0.452721   
Zn       Zn     0.798790000000     0.003890000000     0.888770000000     0.452721   
Zn       Zn     0.062160000000     0.078470000000     0.631480000000     0.452721   
Zn       Zn     0.298790000000     0.996110000000     0.611230000000     0.452721   
Zn       Zn     0.562160000000     0.578470000000     0.868520000000     0.452721   
Zn       Zn     0.798790000000     0.496110000000     0.888770000000     0.452721   
Zn       Zn     0.062160000000     0.421530000000     0.631480000000     0.452721   
Zn       Zn     0.298790000000     0.503890000000     0.611230000000     0.452721   
Zn       Zn     0.437840000000     0.078470000000     0.131480000000     0.452721   
Zn       Zn     0.201210000000     0.996110000000     0.111230000000     0.452721   
Zn       Zn     0.937840000000     0.921530000000     0.368520000000     0.452721   
Zn       Zn     0.701210000000     0.003890000000     0.388770000000     0.452721   
H        H      0.500800000000     0.624500000000     0.131500000000     0.0673494  
H        H      0.718600000000     0.665300000000     0.254000000000     0.0673494  
H        H      0.539700000000     0.526700000000     0.252300000000     0.0673494  
H        H      0.871600000000     0.543500000000     0.008600000000     0.0673494  
H        H      0.870800000000     0.633300000000     0.136300000000     0.0673494  
H        H      0.619000000000     0.661500000000     0.021500000000     0.0673494  
H        H      0.000800000000     0.375500000000     0.368500000000     0.0673494  
H        H      0.218600000000     0.334700000000     0.246000000000     0.0673494  
H        H      0.039700000000     0.473300000000     0.247700000000     0.0673494  
H        H      0.371600000000     0.456500000000     0.491400000000     0.0673494  
H        H      0.370800000000     0.366700000000     0.363700000000     0.0673494  
H        H      0.119000000000     0.338500000000     0.478500000000     0.0673494  
H        H      0.499200000000     0.124500000000     0.868500000000     0.0673494  
H        H      0.281400000000     0.165300000000     0.746000000000     0.0673494  
H        H      0.460300000000     0.026700000000     0.747700000000     0.0673494  
H        H      0.128400000000     0.043500000000     0.991400000000     0.0673494  
H        H      0.129200000000     0.133300000000     0.863700000000     0.0673494  
H        H      0.381000000000     0.161500000000     0.978500000000     0.0673494  
H        H      0.999200000000     0.875500000000     0.631500000000     0.0673494  
H        H      0.781400000000     0.834700000000     0.754000000000     0.0673494  
H        H      0.960300000000     0.973300000000     0.752300000000     0.0673494  
H        H      0.628400000000     0.956500000000     0.508600000000     0.0673494  
H        H      0.629200000000     0.866700000000     0.636300000000     0.0673494  
H        H      0.881000000000     0.838500000000     0.521500000000     0.0673494  
H        H      0.499200000000     0.375500000000     0.868500000000     0.0673494  
H        H      0.281400000000     0.334700000000     0.746000000000     0.0673494  
H        H      0.460300000000     0.473300000000     0.747700000000     0.0673494  
H        H      0.128400000000     0.456500000000     0.991400000000     0.0673494  
H        H      0.129200000000     0.366700000000     0.863700000000     0.0673494  
H        H      0.381000000000     0.338500000000     0.978500000000     0.0673494  
H        H      0.999200000000     0.624500000000     0.631500000000     0.0673494  
H        H      0.781400000000     0.665300000000     0.754000000000     0.0673494  
H        H      0.960300000000     0.526700000000     0.752300000000     0.0673494  
H        H      0.628400000000     0.543500000000     0.508600000000     0.0673494  
H        H      0.629200000000     0.633300000000     0.636300000000     0.0673494  
H        H      0.881000000000     0.661500000000     0.521500000000     0.0673494  
H        H      0.500800000000     0.875500000000     0.131500000000     0.0673494  
H        H      0.718600000000     0.834700000000     0.254000000000     0.0673494  
H        H      0.539700000000     0.973300000000     0.252300000000     0.0673494  
H        H      0.871600000000     0.956500000000     0.008600000000     0.0673494  
H        H      0.870800000000     0.866700000000     0.136300000000     0.0673494  
H        H      0.619000000000     0.838500000000     0.021500000000     0.0673494  
H        H      0.000800000000     0.124500000000     0.368500000000     0.0673494  
H        H      0.218600000000     0.165300000000     0.246000000000     0.0673494  
H        H      0.039700000000     0.026700000000     0.247700000000     0.0673494  
H        H      0.371600000000     0.043500000000     0.491400000000     0.0673494  
H        H      0.370800000000     0.133300000000     0.363700000000     0.0673494  
H        H      0.119000000000     0.161500000000     0.478500000000     0.0673494  
H        H      0.594000000000     0.750000000000     0.220500000000     0.0673494  
H        H      0.744800000000     0.750000000000     0.052000000000     0.0673494  
H        H      0.094000000000     0.250000000000     0.279500000000     0.0673494  
H        H      0.244800000000     0.250000000000     0.448000000000     0.0673494  
H        H      0.406000000000     0.250000000000     0.779500000000     0.0673494  
H        H      0.255200000000     0.250000000000     0.948000000000     0.0673494  
H        H      0.906000000000     0.750000000000     0.720500000000     0.0673494  
H        H      0.755200000000     0.750000000000     0.552000000000     0.0673494  
C        C      0.418800000000     0.532430000000     0.162610000000     0.0460766  
C        C      0.505500000000     0.570440000000     0.188410000000     0.0460766  
C        C      0.535200000000     0.616950000000     0.164510000000     0.0460766  
C        C      0.615200000000     0.652820000000     0.188550000000     0.0460766  
C        C      0.664200000000     0.641200000000     0.237200000000     0.0460766  
C        C      0.557300000000     0.559120000000     0.236450000000     0.0460766  
C        C      0.009700000000     0.559020000000     0.093510000000     0.0460766  
C        C      0.891200000000     0.585990000000     0.074000000000     0.0460766  
C        C      0.838800000000     0.572250000000     0.027290000000     0.0460766  
C        C      0.838200000000     0.625950000000     0.102890000000     0.0460766  
C        C      0.681800000000     0.586860000000     0.956480000000     0.0460766  
C        C      0.736700000000     0.600950000000     0.007560000000     0.0460766  
C        C      0.687700000000     0.642050000000     0.035310000000     0.0460766  
C        C      0.737600000000     0.655530000000     0.083480000000     0.0460766  
C        C      0.694700000000     0.702830000000     0.110890000000     0.0460766  
C        C      0.646600000000     0.702640000000     0.161740000000     0.0460766  
C        C      0.633900000000     0.594640000000     0.261140000000     0.0460766  
C        C      0.689600000000     0.580170000000     0.312630000000     0.0460766  
C        C      0.918800000000     0.467570000000     0.337390000000     0.0460766  
C        C      0.005500000000     0.429560000000     0.311590000000     0.0460766  
C        C      0.035200000000     0.383050000000     0.335490000000     0.0460766  
C        C      0.115200000000     0.347180000000     0.311450000000     0.0460766  
C        C      0.164200000000     0.358800000000     0.262800000000     0.0460766  
C        C      0.057300000000     0.440880000000     0.263550000000     0.0460766  
C        C      0.509700000000     0.440980000000     0.406490000000     0.0460766  
C        C      0.391200000000     0.414010000000     0.426000000000     0.0460766  
C        C      0.338800000000     0.427750000000     0.472710000000     0.0460766  
C        C      0.338200000000     0.374050000000     0.397110000000     0.0460766  
C        C      0.181800000000     0.413140000000     0.543520000000     0.0460766  
C        C      0.236700000000     0.399050000000     0.492440000000     0.0460766  
C        C      0.187700000000     0.357950000000     0.464690000000     0.0460766  
C        C      0.237600000000     0.344470000000     0.416520000000     0.0460766  
C        C      0.194700000000     0.297170000000     0.389110000000     0.0460766  
C        C      0.146600000000     0.297360000000     0.338260000000     0.0460766  
C        C      0.133900000000     0.405360000000     0.238860000000     0.0460766  
C        C      0.189600000000     0.419830000000     0.187370000000     0.0460766  
C        C      0.581200000000     0.032430000000     0.837390000000     0.0460766  
C        C      0.494500000000     0.070440000000     0.811590000000     0.0460766  
C        C      0.464800000000     0.116950000000     0.835490000000     0.0460766  
C        C      0.384800000000     0.152820000000     0.811450000000     0.0460766  
C        C      0.335800000000     0.141200000000     0.762800000000     0.0460766  
C        C      0.442700000000     0.059120000000     0.763550000000     0.0460766  
C        C      0.990300000000     0.059020000000     0.906490000000     0.0460766  
C        C      0.108800000000     0.085990000000     0.926000000000     0.0460766  
C        C      0.161200000000     0.072250000000     0.972710000000     0.0460766  
C        C      0.161800000000     0.125950000000     0.897110000000     0.0460766  
C        C      0.318200000000     0.086860000000     0.043520000000     0.0460766  
C        C      0.263300000000     0.100950000000     0.992440000000     0.0460766  
C        C      0.312300000000     0.142050000000     0.964690000000     0.0460766  
C        C      0.262400000000     0.155530000000     0.916520000000     0.0460766  
C        C      0.305300000000     0.202830000000     0.889110000000     0.0460766  
C        C      0.353400000000     0.202640000000     0.838260000000     0.0460766  
C        C      0.366100000000     0.094640000000     0.738860000000     0.0460766  
C        C      0.310400000000     0.080170000000     0.687370000000     0.0460766  
C        C      0.081200000000     0.967570000000     0.662610000000     0.0460766  
C        C      0.994500000000     0.929560000000     0.688410000000     0.0460766  
C        C      0.964800000000     0.883050000000     0.664510000000     0.0460766  
C        C      0.884800000000     0.847180000000     0.688550000000     0.0460766  
C        C      0.835800000000     0.858800000000     0.737200000000     0.0460766  
C        C      0.942700000000     0.940880000000     0.736450000000     0.0460766  
C        C      0.490300000000     0.940980000000     0.593510000000     0.0460766  
C        C      0.608800000000     0.914010000000     0.574000000000     0.0460766  
C        C      0.661200000000     0.927750000000     0.527290000000     0.0460766  
C        C      0.661800000000     0.874050000000     0.602890000000     0.0460766  
C        C      0.818200000000     0.913140000000     0.456480000000     0.0460766  
C        C      0.763300000000     0.899050000000     0.507560000000     0.0460766  
C        C      0.812300000000     0.857950000000     0.535310000000     0.0460766  
C        C      0.762400000000     0.844470000000     0.583480000000     0.0460766  
C        C      0.805300000000     0.797170000000     0.610890000000     0.0460766  
C        C      0.853400000000     0.797360000000     0.661740000000     0.0460766  
C        C      0.866100000000     0.905360000000     0.761140000000     0.0460766  
C        C      0.810400000000     0.919830000000     0.812630000000     0.0460766  
C        C      0.581200000000     0.467570000000     0.837390000000     0.0460766  
C        C      0.494500000000     0.429560000000     0.811590000000     0.0460766  
C        C      0.464800000000     0.383050000000     0.835490000000     0.0460766  
C        C      0.384800000000     0.347180000000     0.811450000000     0.0460766  
C        C      0.335800000000     0.358800000000     0.762800000000     0.0460766  
C        C      0.442700000000     0.440880000000     0.763550000000     0.0460766  
C        C      0.990300000000     0.440980000000     0.906490000000     0.0460766  
C        C      0.108800000000     0.414010000000     0.926000000000     0.0460766  
C        C      0.161200000000     0.427750000000     0.972710000000     0.0460766  
C        C      0.161800000000     0.374050000000     0.897110000000     0.0460766  
C        C      0.318200000000     0.413140000000     0.043520000000     0.0460766  
C        C      0.263300000000     0.399050000000     0.992440000000     0.0460766  
C        C      0.312300000000     0.357950000000     0.964690000000     0.0460766  
C        C      0.262400000000     0.344470000000     0.916520000000     0.0460766  
C        C      0.305300000000     0.297170000000     0.889110000000     0.0460766  
C        C      0.353400000000     0.297360000000     0.838260000000     0.0460766  
C        C      0.366100000000     0.405360000000     0.738860000000     0.0460766  
C        C      0.310400000000     0.419830000000     0.687370000000     0.0460766  
C        C      0.081200000000     0.532430000000     0.662610000000     0.0460766  
C        C      0.994500000000     0.570440000000     0.688410000000     0.0460766  
C        C      0.964800000000     0.616950000000     0.664510000000     0.0460766  
C        C      0.884800000000     0.652820000000     0.688550000000     0.0460766  
C        C      0.835800000000     0.641200000000     0.737200000000     0.0460766  
C        C      0.942700000000     0.559120000000     0.736450000000     0.0460766  
C        C      0.490300000000     0.559020000000     0.593510000000     0.0460766  
C        C      0.608800000000     0.585990000000     0.574000000000     0.0460766  
C        C      0.661200000000     0.572250000000     0.527290000000     0.0460766  
C        C      0.661800000000     0.625950000000     0.602890000000     0.0460766  
C        C      0.818200000000     0.586860000000     0.456480000000     0.0460766  
C        C      0.763300000000     0.600950000000     0.507560000000     0.0460766  
C        C      0.812300000000     0.642050000000     0.535310000000     0.0460766  
C        C      0.762400000000     0.655530000000     0.583480000000     0.0460766  
C        C      0.805300000000     0.702830000000     0.610890000000     0.0460766  
C        C      0.853400000000     0.702640000000     0.661740000000     0.0460766  
C        C      0.866100000000     0.594640000000     0.761140000000     0.0460766  
C        C      0.810400000000     0.580170000000     0.812630000000     0.0460766  
C        C      0.418800000000     0.967570000000     0.162610000000     0.0460766  
C        C      0.505500000000     0.929560000000     0.188410000000     0.0460766  
C        C      0.535200000000     0.883050000000     0.164510000000     0.0460766  
C        C      0.615200000000     0.847180000000     0.188550000000     0.0460766  
C        C      0.664200000000     0.858800000000     0.237200000000     0.0460766  
C        C      0.557300000000     0.940880000000     0.236450000000     0.0460766  
C        C      0.009700000000     0.940980000000     0.093510000000     0.0460766  
C        C      0.891200000000     0.914010000000     0.074000000000     0.0460766  
C        C      0.838800000000     0.927750000000     0.027290000000     0.0460766  
C        C      0.838200000000     0.874050000000     0.102890000000     0.0460766  
C        C      0.681800000000     0.913140000000     0.956480000000     0.0460766  
C        C      0.736700000000     0.899050000000     0.007560000000     0.0460766  
C        C      0.687700000000     0.857950000000     0.035310000000     0.0460766  
C        C      0.737600000000     0.844470000000     0.083480000000     0.0460766  
C        C      0.694700000000     0.797170000000     0.110890000000     0.0460766  
C        C      0.646600000000     0.797360000000     0.161740000000     0.0460766  
C        C      0.633900000000     0.905360000000     0.261140000000     0.0460766  
C        C      0.689600000000     0.919830000000     0.312630000000     0.0460766  
C        C      0.918800000000     0.032430000000     0.337390000000     0.0460766  
C        C      0.005500000000     0.070440000000     0.311590000000     0.0460766  
C        C      0.035200000000     0.116950000000     0.335490000000     0.0460766  
C        C      0.115200000000     0.152820000000     0.311450000000     0.0460766  
C        C      0.164200000000     0.141200000000     0.262800000000     0.0460766  
C        C      0.057300000000     0.059120000000     0.263550000000     0.0460766  
C        C      0.509700000000     0.059020000000     0.406490000000     0.0460766  
C        C      0.391200000000     0.085990000000     0.426000000000     0.0460766  
C        C      0.338800000000     0.072250000000     0.472710000000     0.0460766  
C        C      0.338200000000     0.125950000000     0.397110000000     0.0460766  
C        C      0.181800000000     0.086860000000     0.543520000000     0.0460766  
C        C      0.236700000000     0.100950000000     0.492440000000     0.0460766  
C        C      0.187700000000     0.142050000000     0.464690000000     0.0460766  
C        C      0.237600000000     0.155530000000     0.416520000000     0.0460766  
C        C      0.194700000000     0.202830000000     0.389110000000     0.0460766  
C        C      0.146600000000     0.202640000000     0.338260000000     0.0460766  
C        C      0.133900000000     0.094640000000     0.238860000000     0.0460766  
C        C      0.189600000000     0.080170000000     0.187370000000     0.0460766  
C        C      0.624800000000     0.750000000000     0.186070000000     0.0460766  
C        C      0.715400000000     0.750000000000     0.086570000000     0.0460766  
C        C      0.124800000000     0.250000000000     0.313930000000     0.0460766  
C        C      0.215400000000     0.250000000000     0.413430000000     0.0460766  
C        C      0.375200000000     0.250000000000     0.813930000000     0.0460766  
C        C      0.284600000000     0.250000000000     0.913430000000     0.0460766  
C        C      0.875200000000     0.750000000000     0.686070000000     0.0460766  
C        C      0.784600000000     0.750000000000     0.586570000000     0.0460766  
O        O      0.049100000000     0.568490000000     0.137220000000    -0.281543   
O        O      0.064000000000     0.527030000000     0.063990000000    -0.281543   
O        O      0.342400000000     0.549930000000     0.129850000000    -0.281543   
O        O      0.426300000000     0.485460000000     0.177040000000    -0.281543   
O        O      0.705900000000     0.543520000000     0.936530000000    -0.281543   
O        O      0.607300000000     0.618100000000     0.934490000000    -0.281543   
O        O      0.639900000000     0.542530000000     0.335260000000    -0.281543   
O        O      0.782400000000     0.607070000000     0.328960000000    -0.281543   
O        O      0.549100000000     0.431510000000     0.362780000000    -0.281543   
O        O      0.564000000000     0.472970000000     0.436010000000    -0.281543   
O        O      0.842400000000     0.450070000000     0.370150000000    -0.281543   
O        O      0.926300000000     0.514540000000     0.322960000000    -0.281543   
O        O      0.205900000000     0.456480000000     0.563470000000    -0.281543   
O        O      0.107300000000     0.381900000000     0.565510000000    -0.281543   
O        O      0.139900000000     0.457470000000     0.164740000000    -0.281543   
O        O      0.282400000000     0.392930000000     0.171040000000    -0.281543   
O        O      0.950900000000     0.068490000000     0.862780000000    -0.281543   
O        O      0.936000000000     0.027030000000     0.936010000000    -0.281543   
O        O      0.657600000000     0.049930000000     0.870150000000    -0.281543   
O        O      0.573700000000     0.985460000000     0.822960000000    -0.281543   
O        O      0.294100000000     0.043520000000     0.063470000000    -0.281543   
O        O      0.392700000000     0.118100000000     0.065510000000    -0.281543   
O        O      0.360100000000     0.042530000000     0.664740000000    -0.281543   
O        O      0.217600000000     0.107070000000     0.671040000000    -0.281543   
O        O      0.450900000000     0.931510000000     0.637220000000    -0.281543   
O        O      0.436000000000     0.972970000000     0.563990000000    -0.281543   
O        O      0.157600000000     0.950070000000     0.629850000000    -0.281543   
O        O      0.073700000000     0.014540000000     0.677040000000    -0.281543   
O        O      0.794100000000     0.956480000000     0.436530000000    -0.281543   
O        O      0.892700000000     0.881900000000     0.434490000000    -0.281543   
O        O      0.860100000000     0.957470000000     0.835260000000    -0.281543   
O        O      0.717600000000     0.892930000000     0.828960000000    -0.281543   
O        O      0.950900000000     0.431510000000     0.862780000000    -0.281543   
O        O      0.936000000000     0.472970000000     0.936010000000    -0.281543   
O        O      0.657600000000     0.450070000000     0.870150000000    -0.281543   
O        O      0.573700000000     0.514540000000     0.822960000000    -0.281543   
O        O      0.294100000000     0.456480000000     0.063470000000    -0.281543   
O        O      0.392700000000     0.381900000000     0.065510000000    -0.281543   
O        O      0.360100000000     0.457470000000     0.664740000000    -0.281543   
O        O      0.217600000000     0.392930000000     0.671040000000    -0.281543   
O        O      0.450900000000     0.568490000000     0.637220000000    -0.281543   
O        O      0.436000000000     0.527030000000     0.563990000000    -0.281543   
O        O      0.157600000000     0.549930000000     0.629850000000    -0.281543   
O        O      0.073700000000     0.485460000000     0.677040000000    -0.281543   
O        O      0.794100000000     0.543520000000     0.436530000000    -0.281543   
O        O      0.892700000000     0.618100000000     0.434490000000    -0.281543   
O        O      0.860100000000     0.542530000000     0.835260000000    -0.281543   
O        O      0.717600000000     0.607070000000     0.828960000000    -0.281543   
O        O      0.049100000000     0.931510000000     0.137220000000    -0.281543   
O        O      0.064000000000     0.972970000000     0.063990000000    -0.281543   
O        O      0.342400000000     0.950070000000     0.129850000000    -0.281543   
O        O      0.426300000000     0.014540000000     0.177040000000    -0.281543   
O        O      0.705900000000     0.956480000000     0.936530000000    -0.281543   
O        O      0.607300000000     0.881900000000     0.934490000000    -0.281543   
O        O      0.639900000000     0.957470000000     0.335260000000    -0.281543   
O        O      0.782400000000     0.892930000000     0.328960000000    -0.281543   
O        O      0.549100000000     0.068490000000     0.362780000000    -0.281543   
O        O      0.564000000000     0.027030000000     0.436010000000    -0.281543   
O        O      0.842400000000     0.049930000000     0.370150000000    -0.281543   
O        O      0.926300000000     0.985460000000     0.322960000000    -0.281543   
O        O      0.205900000000     0.043520000000     0.563470000000    -0.281543   
O        O      0.107300000000     0.118100000000     0.565510000000    -0.281543   
O        O      0.139900000000     0.042530000000     0.164740000000    -0.281543   
O        O      0.282400000000     0.107070000000     0.171040000000    -0.281543   


