data_TEBSAW_original

_audit_creation_method RASPA-1.0
_audit_creation_date 2022-1-29
_audit_author_name 'Felipe Lopes de Oliveira <felipe.lopes.oliveira@ibm.com>'

_cell_length_a    10.7868
_cell_length_b    13.9806
_cell_length_c    17.9066
_cell_angle_alpha 111.605
_cell_angle_beta  90
_cell_angle_gamma 90
_cell_volume      2510.7

_symmetry_cell_setting          triclinic
_symmetry_space_group_name_Hall 'P 1'
_symmetry_space_group_name_H-M  'P 1'
_symmetry_Int_Tables_number     1

_symmetry_equiv_pos_as_xyz 'x,y,z'

loop_
_atom_site_label
_atom_site_type_symbol
_atom_site_fract_x
_atom_site_fract_y
_atom_site_fract_z
_atom_site_charge
Zn       Zn     0.721890000000     0.269420000000     0.176310000000     0.338526   
Zn       Zn     0.766950000000     0.759250000000     0.330530000000     0.338526   
Zn       Zn     0.221890000000     0.230580000000     0.323690000000     0.338526   
Zn       Zn     0.266950000000     0.740750000000     0.169470000000     0.338526   
Zn       Zn     0.278110000000     0.730580000000     0.823690000000     0.338526   
Zn       Zn     0.233050000000     0.240750000000     0.669470000000     0.338526   
Zn       Zn     0.778110000000     0.769420000000     0.676310000000     0.338526   
Zn       Zn     0.733050000000     0.259250000000     0.830530000000     0.338526   
H        H      0.964200000000     0.559700000000     0.270400000000     0.219754   
H        H      0.944000000000     0.453100000000     0.196700000000     0.219754   
H        H      0.952500000000     0.454800000000     0.286400000000     0.219754   
H        H      0.492400000000     0.367200000000     0.385700000000     0.219754   
H        H      0.625400000000     0.322200000000     0.350400000000     0.219754   
H        H      0.531100000000     0.253600000000     0.378400000000     0.219754   
H        H      0.945500000000     0.735600000000     0.132000000000     0.219754   
H        H      0.873300000000     0.651200000000     0.156200000000     0.219754   
H        H      0.008300000000     0.626300000000     0.116700000000     0.219754   
H        H      0.671500000000     0.084400000000     0.943900000000     0.219754   
H        H      0.569800000000     0.157000000000     0.926600000000     0.219754   
H        H      0.576400000000     0.147800000000     0.013000000000     0.219754   
H        H      0.464200000000     0.940300000000     0.229600000000     0.219754   
H        H      0.444000000000     0.046900000000     0.303300000000     0.219754   
H        H      0.452500000000     0.045200000000     0.213600000000     0.219754   
H        H      0.992400000000     0.132800000000     0.114300000000     0.219754   
H        H      0.125400000000     0.177800000000     0.149600000000     0.219754   
H        H      0.031100000000     0.246400000000     0.121600000000     0.219754   
H        H      0.445500000000     0.764400000000     0.368000000000     0.219754   
H        H      0.373300000000     0.848800000000     0.343800000000     0.219754   
H        H      0.508300000000     0.873700000000     0.383300000000     0.219754   
H        H      0.171500000000     0.415600000000     0.556100000000     0.219754   
H        H      0.069800000000     0.343000000000     0.573400000000     0.219754   
H        H      0.076400000000     0.352200000000     0.487000000000     0.219754   
H        H      0.035800000000     0.440300000000     0.729600000000     0.219754   
H        H      0.056000000000     0.546900000000     0.803300000000     0.219754   
H        H      0.047500000000     0.545200000000     0.713600000000     0.219754   
H        H      0.507600000000     0.632800000000     0.614300000000     0.219754   
H        H      0.374600000000     0.677800000000     0.649600000000     0.219754   
H        H      0.468900000000     0.746400000000     0.621600000000     0.219754   
H        H      0.054500000000     0.264400000000     0.868000000000     0.219754   
H        H      0.126700000000     0.348800000000     0.843800000000     0.219754   
H        H      0.991700000000     0.373700000000     0.883300000000     0.219754   
H        H      0.328500000000     0.915600000000     0.056100000000     0.219754   
H        H      0.430200000000     0.843000000000     0.073400000000     0.219754   
H        H      0.423600000000     0.852200000000     0.987000000000     0.219754   
H        H      0.535800000000     0.059700000000     0.770400000000     0.219754   
H        H      0.556000000000     0.953100000000     0.696700000000     0.219754   
H        H      0.547500000000     0.954800000000     0.786400000000     0.219754   
H        H      0.007600000000     0.867200000000     0.885700000000     0.219754   
H        H      0.874600000000     0.822200000000     0.850400000000     0.219754   
H        H      0.968900000000     0.753600000000     0.878400000000     0.219754   
H        H      0.554500000000     0.235600000000     0.632000000000     0.219754   
H        H      0.626700000000     0.151200000000     0.656200000000     0.219754   
H        H      0.491700000000     0.126300000000     0.616700000000     0.219754   
H        H      0.828500000000     0.584400000000     0.443900000000     0.219754   
H        H      0.930200000000     0.657000000000     0.426600000000     0.219754   
H        H      0.923600000000     0.647800000000     0.513000000000     0.219754   
C        C      0.786560000000     0.506730000000     0.261770000000    -0.188263   
C        C      0.923580000000     0.492360000000     0.253080000000    -0.188263   
C        C      0.484590000000     0.262720000000     0.271040000000    -0.188263   
C        C      0.537910000000     0.305050000000     0.353420000000    -0.188263   
C        C      0.011630000000     0.722010000000     0.233810000000    -0.188263   
C        C      0.954880000000     0.680230000000     0.152800000000    -0.188263   
C        C      0.713810000000     0.236790000000     0.994890000000    -0.188263   
C        C      0.625330000000     0.148980000000     0.967240000000    -0.188263   
C        C      0.286560000000     0.993270000000     0.238230000000    -0.188263   
C        C      0.423580000000     0.007640000000     0.246920000000    -0.188263   
C        C      0.984590000000     0.237280000000     0.228960000000    -0.188263   
C        C      0.037910000000     0.194950000000     0.146580000000    -0.188263   
C        C      0.511630000000     0.777990000000     0.266190000000    -0.188263   
C        C      0.454880000000     0.819770000000     0.347200000000    -0.188263   
C        C      0.213810000000     0.263210000000     0.505110000000    -0.188263   
C        C      0.125330000000     0.351020000000     0.532760000000    -0.188263   
C        C      0.213440000000     0.493270000000     0.738230000000    -0.188263   
C        C      0.076420000000     0.507640000000     0.746920000000    -0.188263   
C        C      0.515410000000     0.737280000000     0.728960000000    -0.188263   
C        C      0.462090000000     0.694950000000     0.646580000000    -0.188263   
C        C      0.988370000000     0.277990000000     0.766190000000    -0.188263   
C        C      0.045120000000     0.319770000000     0.847200000000    -0.188263   
C        C      0.286190000000     0.763210000000     0.005110000000    -0.188263   
C        C      0.374670000000     0.851020000000     0.032760000000    -0.188263   
C        C      0.713440000000     0.006730000000     0.761770000000    -0.188263   
C        C      0.576420000000     0.992360000000     0.753080000000    -0.188263   
C        C      0.015410000000     0.762720000000     0.771040000000    -0.188263   
C        C      0.962090000000     0.805050000000     0.853420000000    -0.188263   
C        C      0.488370000000     0.222010000000     0.733810000000    -0.188263   
C        C      0.545120000000     0.180230000000     0.652800000000    -0.188263   
C        C      0.786190000000     0.736790000000     0.494890000000    -0.188263   
C        C      0.874670000000     0.648980000000     0.467240000000    -0.188263   
N        N      0.728710000000     0.597150000000     0.293650000000    -0.113      
N        N      0.605920000000     0.574680000000     0.293860000000    -0.113      
N        N      0.591250000000     0.475380000000     0.262930000000    -0.113      
N        N      0.703790000000     0.429850000000     0.241660000000    -0.113      
N        N      0.547990000000     0.239040000000     0.202410000000    -0.113      
N        N      0.463880000000     0.202120000000     0.141890000000    -0.113      
N        N      0.354740000000     0.202830000000     0.172870000000    -0.113      
N        N      0.365360000000     0.240680000000     0.254240000000    -0.113      
N        N      0.949810000000     0.751100000000     0.303020000000    -0.113      
N        N      0.036200000000     0.784490000000     0.362180000000    -0.113      
N        N      0.145530000000     0.775470000000     0.329350000000    -0.113      
N        N      0.132650000000     0.736030000000     0.248280000000    -0.113      
N        N      0.755960000000     0.282680000000     0.069710000000    -0.113      
N        N      0.834240000000     0.358500000000     0.068420000000    -0.113      
N        N      0.838570000000     0.358630000000     0.996130000000    -0.113      
N        N      0.762970000000     0.282700000000     0.948170000000    -0.113      
N        N      0.228710000000     0.902850000000     0.206350000000    -0.113      
N        N      0.105920000000     0.925320000000     0.206140000000    -0.113      
N        N      0.091250000000     0.024620000000     0.237070000000    -0.113      
N        N      0.203790000000     0.070150000000     0.258340000000    -0.113      
N        N      0.047990000000     0.260960000000     0.297590000000    -0.113      
N        N      0.963880000000     0.297880000000     0.358110000000    -0.113      
N        N      0.854740000000     0.297170000000     0.327130000000    -0.113      
N        N      0.865360000000     0.259320000000     0.245760000000    -0.113      
N        N      0.449810000000     0.748900000000     0.196980000000    -0.113      
N        N      0.536200000000     0.715510000000     0.137820000000    -0.113      
N        N      0.645530000000     0.724530000000     0.170650000000    -0.113      
N        N      0.632650000000     0.763970000000     0.251720000000    -0.113      
N        N      0.255960000000     0.217320000000     0.430290000000    -0.113      
N        N      0.334240000000     0.141500000000     0.431580000000    -0.113      
N        N      0.338570000000     0.141370000000     0.503870000000    -0.113      
N        N      0.262970000000     0.217300000000     0.551830000000    -0.113      
N        N      0.271290000000     0.402850000000     0.706350000000    -0.113      
N        N      0.394080000000     0.425320000000     0.706140000000    -0.113      
N        N      0.408750000000     0.524620000000     0.737070000000    -0.113      
N        N      0.296210000000     0.570150000000     0.758340000000    -0.113      
N        N      0.452010000000     0.760960000000     0.797590000000    -0.113      
N        N      0.536120000000     0.797880000000     0.858110000000    -0.113      
N        N      0.645260000000     0.797170000000     0.827130000000    -0.113      
N        N      0.634640000000     0.759320000000     0.745760000000    -0.113      
N        N      0.050190000000     0.248900000000     0.696980000000    -0.113      
N        N      0.963800000000     0.215510000000     0.637820000000    -0.113      
N        N      0.854470000000     0.224530000000     0.670650000000    -0.113      
N        N      0.867350000000     0.263970000000     0.751720000000    -0.113      
N        N      0.244040000000     0.717320000000     0.930290000000    -0.113      
N        N      0.165760000000     0.641500000000     0.931580000000    -0.113      
N        N      0.161430000000     0.641370000000     0.003870000000    -0.113      
N        N      0.237030000000     0.717300000000     0.051830000000    -0.113      
N        N      0.771290000000     0.097150000000     0.793650000000    -0.113      
N        N      0.894080000000     0.074680000000     0.793860000000    -0.113      
N        N      0.908750000000     0.975380000000     0.762930000000    -0.113      
N        N      0.796210000000     0.929850000000     0.741660000000    -0.113      
N        N      0.952010000000     0.739040000000     0.702410000000    -0.113      
N        N      0.036120000000     0.702120000000     0.641890000000    -0.113      
N        N      0.145260000000     0.702830000000     0.672870000000    -0.113      
N        N      0.134640000000     0.740680000000     0.754240000000    -0.113      
N        N      0.550190000000     0.251100000000     0.803020000000    -0.113      
N        N      0.463800000000     0.284490000000     0.862180000000    -0.113      
N        N      0.354470000000     0.275470000000     0.829350000000    -0.113      
N        N      0.367350000000     0.236030000000     0.748280000000    -0.113      
N        N      0.744040000000     0.782680000000     0.569710000000    -0.113      
N        N      0.665760000000     0.858500000000     0.568420000000    -0.113      
N        N      0.661430000000     0.858630000000     0.496130000000    -0.113      
N        N      0.737030000000     0.782700000000     0.448170000000    -0.113      


