data_TEDGOA_original

_audit_creation_method RASPA-1.0
_audit_creation_date 2022-1-28
_audit_author_name 'Felipe Lopes de Oliveira <felipe.lopes.oliveira@ibm.com>'

_cell_length_a    13.601
_cell_length_b    15.605
_cell_length_c    15.605
_cell_angle_alpha 90
_cell_angle_beta  90
_cell_angle_gamma 90
_cell_volume      3312.06

_symmetry_cell_setting          triclinic
_symmetry_space_group_name_Hall 'P 1'
_symmetry_space_group_name_H-M  'P 1'
_symmetry_Int_Tables_number     1

_symmetry_equiv_pos_as_xyz 'x,y,z'

loop_
_atom_site_label
_atom_site_type_symbol
_atom_site_fract_x
_atom_site_fract_y
_atom_site_fract_z
_atom_site_charge
Zn       Zn     0.641240000000     0.000000000000     0.000000000000     0.386639   
Zn       Zn     0.141240000000     0.500000000000     0.500000000000     0.386639   
Zn       Zn     0.858760000000     0.500000000000     0.500000000000     0.386639   
Zn       Zn     0.358760000000     0.000000000000     0.000000000000     0.386639   
H        H      0.500000000000     0.394400000000     0.605600000000     0.0950592  
H        H      0.500000000000     0.605600000000     0.394400000000     0.0950592  
H        H      0.000000000000     0.894400000000     0.894400000000     0.0950592  
H        H      0.000000000000     0.105600000000     0.105600000000     0.0950592  
H        H      0.352500000000     0.237900000000     0.762100000000     0.0950592  
H        H      0.352500000000     0.762100000000     0.237900000000     0.0950592  
H        H      0.852500000000     0.737900000000     0.737900000000     0.0950592  
H        H      0.852500000000     0.262100000000     0.262100000000     0.0950592  
H        H      0.147500000000     0.262100000000     0.262100000000     0.0950592  
H        H      0.147500000000     0.737900000000     0.737900000000     0.0950592  
H        H      0.647500000000     0.762100000000     0.237900000000     0.0950592  
H        H      0.647500000000     0.237900000000     0.762100000000     0.0950592  
C        C      0.500000000000     0.161200000000     0.838800000000     0.0233833  
C        C      0.500000000000     0.228500000000     0.771500000000     0.0233833  
C        C      0.500000000000     0.352200000000     0.647800000000     0.0233833  
C        C      0.500000000000     0.838800000000     0.161200000000     0.0233833  
C        C      0.500000000000     0.771500000000     0.228500000000     0.0233833  
C        C      0.500000000000     0.647800000000     0.352200000000     0.0233833  
C        C      0.000000000000     0.661200000000     0.661200000000     0.0233833  
C        C      0.000000000000     0.728500000000     0.728500000000     0.0233833  
C        C      0.000000000000     0.852200000000     0.852200000000     0.0233833  
C        C      0.000000000000     0.338800000000     0.338800000000     0.0233833  
C        C      0.000000000000     0.271500000000     0.271500000000     0.0233833  
C        C      0.000000000000     0.147800000000     0.147800000000     0.0233833  
C        C      0.411700000000     0.259000000000     0.741000000000     0.0233833  
C        C      0.412700000000     0.321800000000     0.678200000000     0.0233833  
C        C      0.317800000000     0.355800000000     0.644200000000     0.0233833  
C        C      0.411700000000     0.741000000000     0.259000000000     0.0233833  
C        C      0.412700000000     0.678200000000     0.321800000000     0.0233833  
C        C      0.317800000000     0.644200000000     0.355800000000     0.0233833  
C        C      0.911700000000     0.759000000000     0.759000000000     0.0233833  
C        C      0.912700000000     0.821800000000     0.821800000000     0.0233833  
C        C      0.817800000000     0.855800000000     0.855800000000     0.0233833  
C        C      0.911700000000     0.241000000000     0.241000000000     0.0233833  
C        C      0.912700000000     0.178200000000     0.178200000000     0.0233833  
C        C      0.817800000000     0.144200000000     0.144200000000     0.0233833  
C        C      0.088300000000     0.241000000000     0.241000000000     0.0233833  
C        C      0.087300000000     0.178200000000     0.178200000000     0.0233833  
C        C      0.182200000000     0.144200000000     0.144200000000     0.0233833  
C        C      0.088300000000     0.759000000000     0.759000000000     0.0233833  
C        C      0.087300000000     0.821800000000     0.821800000000     0.0233833  
C        C      0.182200000000     0.855800000000     0.855800000000     0.0233833  
C        C      0.588300000000     0.741000000000     0.259000000000     0.0233833  
C        C      0.587300000000     0.678200000000     0.321800000000     0.0233833  
C        C      0.682200000000     0.644200000000     0.355800000000     0.0233833  
C        C      0.588300000000     0.259000000000     0.741000000000     0.0233833  
C        C      0.587300000000     0.321800000000     0.678200000000     0.0233833  
C        C      0.682200000000     0.355800000000     0.644200000000     0.0233833  
N        N      0.548600000000     0.071170000000     0.928830000000    -0.0735222  
N        N      0.581600000000     0.128290000000     0.871710000000    -0.0735222  
N        N      0.213500000000     0.423800000000     0.576200000000    -0.0735222  
N        N      0.309100000000     0.414440000000     0.585560000000    -0.0735222  
N        N      0.231500000000     0.328000000000     0.672000000000    -0.0735222  
N        N      0.167600000000     0.374400000000     0.625600000000    -0.0735222  
N        N      0.548600000000     0.928830000000     0.071170000000    -0.0735222  
N        N      0.581600000000     0.871710000000     0.128290000000    -0.0735222  
N        N      0.213500000000     0.576200000000     0.423800000000    -0.0735222  
N        N      0.309100000000     0.585560000000     0.414440000000    -0.0735222  
N        N      0.231500000000     0.672000000000     0.328000000000    -0.0735222  
N        N      0.167600000000     0.625600000000     0.374400000000    -0.0735222  
N        N      0.048600000000     0.571170000000     0.571170000000    -0.0735222  
N        N      0.081600000000     0.628290000000     0.628290000000    -0.0735222  
N        N      0.713500000000     0.923800000000     0.923800000000    -0.0735222  
N        N      0.809100000000     0.914440000000     0.914440000000    -0.0735222  
N        N      0.731500000000     0.828000000000     0.828000000000    -0.0735222  
N        N      0.667600000000     0.874400000000     0.874400000000    -0.0735222  
N        N      0.048600000000     0.428830000000     0.428830000000    -0.0735222  
N        N      0.081600000000     0.371710000000     0.371710000000    -0.0735222  
N        N      0.713500000000     0.076200000000     0.076200000000    -0.0735222  
N        N      0.809100000000     0.085560000000     0.085560000000    -0.0735222  
N        N      0.731500000000     0.172000000000     0.172000000000    -0.0735222  
N        N      0.667600000000     0.125600000000     0.125600000000    -0.0735222  
N        N      0.951400000000     0.428830000000     0.428830000000    -0.0735222  
N        N      0.918400000000     0.371710000000     0.371710000000    -0.0735222  
N        N      0.286500000000     0.076200000000     0.076200000000    -0.0735222  
N        N      0.190900000000     0.085560000000     0.085560000000    -0.0735222  
N        N      0.268500000000     0.172000000000     0.172000000000    -0.0735222  
N        N      0.332400000000     0.125600000000     0.125600000000    -0.0735222  
N        N      0.951400000000     0.571170000000     0.571170000000    -0.0735222  
N        N      0.918400000000     0.628290000000     0.628290000000    -0.0735222  
N        N      0.286500000000     0.923800000000     0.923800000000    -0.0735222  
N        N      0.190900000000     0.914440000000     0.914440000000    -0.0735222  
N        N      0.268500000000     0.828000000000     0.828000000000    -0.0735222  
N        N      0.332400000000     0.874400000000     0.874400000000    -0.0735222  
N        N      0.451400000000     0.928830000000     0.071170000000    -0.0735222  
N        N      0.418400000000     0.871710000000     0.128290000000    -0.0735222  
N        N      0.786500000000     0.576200000000     0.423800000000    -0.0735222  
N        N      0.690900000000     0.585560000000     0.414440000000    -0.0735222  
N        N      0.768500000000     0.672000000000     0.328000000000    -0.0735222  
N        N      0.832400000000     0.625600000000     0.374400000000    -0.0735222  
N        N      0.451400000000     0.071170000000     0.928830000000    -0.0735222  
N        N      0.418400000000     0.128290000000     0.871710000000    -0.0735222  
N        N      0.786500000000     0.423800000000     0.576200000000    -0.0735222  
N        N      0.690900000000     0.414440000000     0.585560000000    -0.0735222  
N        N      0.768500000000     0.328000000000     0.672000000000    -0.0735222  
N        N      0.832400000000     0.374400000000     0.625600000000    -0.0735222  


