data_TEDSIG_original

_audit_creation_method RASPA-1.0
_audit_creation_date 2022-1-29
_audit_author_name 'Felipe Lopes de Oliveira <felipe.lopes.oliveira@ibm.com>'

_cell_length_a    10.1841
_cell_length_b    12.0386
_cell_length_c    18.83
_cell_angle_alpha 90
_cell_angle_beta  99.159
_cell_angle_gamma 90
_cell_volume      2279.17

_symmetry_cell_setting          triclinic
_symmetry_space_group_name_Hall 'P 1'
_symmetry_space_group_name_H-M  'P 1'
_symmetry_Int_Tables_number     1

_symmetry_equiv_pos_as_xyz 'x,y,z'

loop_
_atom_site_label
_atom_site_type_symbol
_atom_site_fract_x
_atom_site_fract_y
_atom_site_fract_z
_atom_site_charge
Zn       Zn     0.879390000000     0.899210000000     0.673540000000     0.447988   
Zn       Zn     0.620610000000     0.399210000000     0.826460000000     0.447988   
Zn       Zn     0.120610000000     0.100790000000     0.326460000000     0.447988   
Zn       Zn     0.379390000000     0.600790000000     0.173540000000     0.447988   
H        H      0.291200000000     0.196600000000     0.738500000000     0.123604   
H        H      0.067500000000     0.115500000000     0.550500000000     0.123604   
H        H      0.378200000000     0.321800000000     0.554600000000     0.123604   
H        H      0.638000000000     0.981000000000     0.916000000000     0.123604   
H        H      0.526500000000     0.890100000000     0.903100000000     0.123604   
H        H      0.595900000000     0.775200000000     0.667200000000     0.123604   
H        H      0.487900000000     0.101900000000     0.962400000000     0.123604   
H        H      0.379500000000     0.008400000000     0.951500000000     0.123604   
H        H      0.398500000000     0.008900000000     0.819400000000     0.123604   
H        H      0.514800000000     0.095800000000     0.830600000000     0.123604   
H        H      0.435200000000     0.825500000000     0.744900000000     0.123604   
H        H      0.840800000000     0.079100000000     0.767000000000     0.123604   
H        H      0.753000000000     0.099700000000     0.826900000000     0.123604   
H        H      0.712500000000     0.152500000000     0.750500000000     0.123604   
H        H      0.208800000000     0.696600000000     0.761500000000     0.123604   
H        H      0.432500000000     0.615500000000     0.949500000000     0.123604   
H        H      0.121800000000     0.821800000000     0.945400000000     0.123604   
H        H      0.862000000000     0.481000000000     0.584000000000     0.123604   
H        H      0.973500000000     0.390100000000     0.596900000000     0.123604   
H        H      0.904100000000     0.275200000000     0.832800000000     0.123604   
H        H      0.012100000000     0.601900000000     0.537600000000     0.123604   
H        H      0.120500000000     0.508400000000     0.548500000000     0.123604   
H        H      0.101500000000     0.508900000000     0.680600000000     0.123604   
H        H      0.985200000000     0.595800000000     0.669400000000     0.123604   
H        H      0.064800000000     0.325500000000     0.755100000000     0.123604   
H        H      0.659200000000     0.579100000000     0.733000000000     0.123604   
H        H      0.747000000000     0.599700000000     0.673100000000     0.123604   
H        H      0.787500000000     0.652500000000     0.749500000000     0.123604   
H        H      0.708800000000     0.803400000000     0.261500000000     0.123604   
H        H      0.932500000000     0.884500000000     0.449500000000     0.123604   
H        H      0.621800000000     0.678200000000     0.445400000000     0.123604   
H        H      0.362000000000     0.019000000000     0.084000000000     0.123604   
H        H      0.473500000000     0.109900000000     0.096900000000     0.123604   
H        H      0.404100000000     0.224800000000     0.332800000000     0.123604   
H        H      0.512100000000     0.898100000000     0.037600000000     0.123604   
H        H      0.620500000000     0.991600000000     0.048500000000     0.123604   
H        H      0.601500000000     0.991100000000     0.180600000000     0.123604   
H        H      0.485200000000     0.904200000000     0.169400000000     0.123604   
H        H      0.564800000000     0.174500000000     0.255100000000     0.123604   
H        H      0.159200000000     0.920900000000     0.233000000000     0.123604   
H        H      0.247000000000     0.900300000000     0.173100000000     0.123604   
H        H      0.287500000000     0.847500000000     0.249500000000     0.123604   
H        H      0.791200000000     0.303400000000     0.238500000000     0.123604   
H        H      0.567500000000     0.384500000000     0.050500000000     0.123604   
H        H      0.878200000000     0.178200000000     0.054600000000     0.123604   
H        H      0.138000000000     0.519000000000     0.416000000000     0.123604   
H        H      0.026500000000     0.609900000000     0.403100000000     0.123604   
H        H      0.095900000000     0.724800000000     0.167200000000     0.123604   
H        H      0.987900000000     0.398100000000     0.462400000000     0.123604   
H        H      0.879500000000     0.491600000000     0.451500000000     0.123604   
H        H      0.898500000000     0.491100000000     0.319400000000     0.123604   
H        H      0.014800000000     0.404200000000     0.330600000000     0.123604   
H        H      0.935200000000     0.674500000000     0.244900000000     0.123604   
H        H      0.340800000000     0.420900000000     0.267000000000     0.123604   
H        H      0.253000000000     0.400300000000     0.326900000000     0.123604   
H        H      0.212500000000     0.347500000000     0.250500000000     0.123604   
C        C      0.074800000000     0.080100000000     0.692000000000    -0.00726819 
C        C      0.477100000000     0.323600000000     0.694200000000    -0.00726819 
C        C      0.272600000000     0.203300000000     0.688730000000    -0.00726819 
C        C      0.138600000000     0.154300000000     0.576180000000    -0.00726819 
C        C      0.220400000000     0.218000000000     0.539750000000    -0.00726819 
C        C      0.162700000000     0.148400000000     0.651130000000    -0.00726819 
C        C      0.355100000000     0.267900000000     0.653290000000    -0.00726819 
C        C      0.672600000000     0.989400000000     0.752610000000    -0.00726819 
C        C      0.326100000000     0.276400000000     0.578810000000    -0.00726819 
C        C      0.542700000000     0.969500000000     0.904130000000    -0.00726819 
C        C      0.704400000000     0.280900000000     0.958270000000    -0.00726819 
C        C      0.601200000000     0.836900000000     0.697160000000    -0.00726819 
C        C      0.474400000000     0.022100000000     0.962640000000    -0.00726819 
C        C      0.494400000000     0.017100000000     0.830490000000    -0.00726819 
C        C      0.512000000000     0.864500000000     0.739820000000    -0.00726819 
C        C      0.751600000000     0.088800000000     0.776300000000    -0.00726819 
C        C      0.425200000000     0.580100000000     0.808000000000    -0.00726819 
C        C      0.022900000000     0.823600000000     0.805800000000    -0.00726819 
C        C      0.227400000000     0.703300000000     0.811270000000    -0.00726819 
C        C      0.361400000000     0.654300000000     0.923820000000    -0.00726819 
C        C      0.279600000000     0.718000000000     0.960250000000    -0.00726819 
C        C      0.337300000000     0.648400000000     0.848870000000    -0.00726819 
C        C      0.144900000000     0.767900000000     0.846710000000    -0.00726819 
C        C      0.827400000000     0.489400000000     0.747390000000    -0.00726819 
C        C      0.173900000000     0.776400000000     0.921190000000    -0.00726819 
C        C      0.957300000000     0.469500000000     0.595870000000    -0.00726819 
C        C      0.795600000000     0.780900000000     0.541730000000    -0.00726819 
C        C      0.898800000000     0.336900000000     0.802840000000    -0.00726819 
C        C      0.025600000000     0.522100000000     0.537360000000    -0.00726819 
C        C      0.005600000000     0.517100000000     0.669510000000    -0.00726819 
C        C      0.988000000000     0.364500000000     0.760180000000    -0.00726819 
C        C      0.748400000000     0.588800000000     0.723700000000    -0.00726819 
C        C      0.925200000000     0.919900000000     0.308000000000    -0.00726819 
C        C      0.522900000000     0.676400000000     0.305800000000    -0.00726819 
C        C      0.727400000000     0.796700000000     0.311270000000    -0.00726819 
C        C      0.861400000000     0.845700000000     0.423820000000    -0.00726819 
C        C      0.779600000000     0.782000000000     0.460250000000    -0.00726819 
C        C      0.837300000000     0.851600000000     0.348870000000    -0.00726819 
C        C      0.644900000000     0.732100000000     0.346710000000    -0.00726819 
C        C      0.327400000000     0.010600000000     0.247390000000    -0.00726819 
C        C      0.673900000000     0.723600000000     0.421190000000    -0.00726819 
C        C      0.457300000000     0.030500000000     0.095870000000    -0.00726819 
C        C      0.295600000000     0.719100000000     0.041730000000    -0.00726819 
C        C      0.398800000000     0.163100000000     0.302840000000    -0.00726819 
C        C      0.525600000000     0.977900000000     0.037360000000    -0.00726819 
C        C      0.505600000000     0.982900000000     0.169510000000    -0.00726819 
C        C      0.488000000000     0.135500000000     0.260180000000    -0.00726819 
C        C      0.248400000000     0.911200000000     0.223700000000    -0.00726819 
C        C      0.574800000000     0.419900000000     0.192000000000    -0.00726819 
C        C      0.977100000000     0.176400000000     0.194200000000    -0.00726819 
C        C      0.772600000000     0.296700000000     0.188730000000    -0.00726819 
C        C      0.638600000000     0.345700000000     0.076180000000    -0.00726819 
C        C      0.720400000000     0.282000000000     0.039750000000    -0.00726819 
C        C      0.662700000000     0.351600000000     0.151130000000    -0.00726819 
C        C      0.855100000000     0.232100000000     0.153290000000    -0.00726819 
C        C      0.172600000000     0.510600000000     0.252610000000    -0.00726819 
C        C      0.826100000000     0.223600000000     0.078810000000    -0.00726819 
C        C      0.042700000000     0.530500000000     0.404130000000    -0.00726819 
C        C      0.204400000000     0.219100000000     0.458270000000    -0.00726819 
C        C      0.101200000000     0.663100000000     0.197160000000    -0.00726819 
C        C      0.974400000000     0.477900000000     0.462640000000    -0.00726819 
C        C      0.994400000000     0.482900000000     0.330490000000    -0.00726819 
C        C      0.012000000000     0.635500000000     0.239820000000    -0.00726819 
C        C      0.251600000000     0.411200000000     0.276300000000    -0.00726819 
N        N      0.701400000000     0.914770000000     0.705020000000    -0.194569   
N        N      0.556300000000     0.961440000000     0.774400000000    -0.194569   
N        N      0.798600000000     0.414770000000     0.794980000000    -0.194569   
N        N      0.943700000000     0.461440000000     0.725600000000    -0.194569   
N        N      0.298600000000     0.085230000000     0.294980000000    -0.194569   
N        N      0.443700000000     0.038560000000     0.225600000000    -0.194569   
N        N      0.201400000000     0.585230000000     0.205020000000    -0.194569   
N        N      0.056300000000     0.538560000000     0.274400000000    -0.194569   
O        O      0.972450000000     0.037710000000     0.654490000000    -0.278835   
O        O      0.494040000000     0.308150000000     0.763090000000    -0.278835   
O        O      0.625150000000     0.353530000000     0.926830000000    -0.278835   
O        O      0.107100000000     0.068950000000     0.757950000000    -0.278835   
O        O      0.769300000000     0.215700000000     0.928380000000    -0.278835   
O        O      0.051250000000     0.122930000000     0.161500000000    -0.278835   
O        O      0.527550000000     0.537710000000     0.845510000000    -0.278835   
O        O      0.005960000000     0.808150000000     0.736910000000    -0.278835   
O        O      0.874850000000     0.853530000000     0.573170000000    -0.278835   
O        O      0.392900000000     0.568950000000     0.742050000000    -0.278835   
O        O      0.730700000000     0.715700000000     0.571620000000    -0.278835   
O        O      0.448750000000     0.622930000000     0.338500000000    -0.278835   
O        O      0.027550000000     0.962290000000     0.345510000000    -0.278835   
O        O      0.505960000000     0.691850000000     0.236910000000    -0.278835   
O        O      0.374850000000     0.646470000000     0.073170000000    -0.278835   
O        O      0.892900000000     0.931050000000     0.242050000000    -0.278835   
O        O      0.230700000000     0.784300000000     0.071620000000    -0.278835   
O        O      0.948750000000     0.877070000000     0.838500000000    -0.278835   
O        O      0.472450000000     0.462290000000     0.154490000000    -0.278835   
O        O      0.994040000000     0.191850000000     0.263090000000    -0.278835   
O        O      0.125150000000     0.146470000000     0.426830000000    -0.278835   
O        O      0.607100000000     0.431050000000     0.257950000000    -0.278835   
O        O      0.269300000000     0.284300000000     0.428380000000    -0.278835   
O        O      0.551250000000     0.377070000000     0.661500000000    -0.278835   


