data_TENLIJ_original

_audit_creation_method RASPA-1.0
_audit_creation_date 2022-1-29
_audit_author_name 'Felipe Lopes de Oliveira <felipe.lopes.oliveira@ibm.com>'

_cell_length_a    17.5176
_cell_length_b    17.5176
_cell_length_c    17.5176
_cell_angle_alpha 95.7188
_cell_angle_beta  116.755
_cell_angle_gamma 116.755
_cell_volume      3966.15

_symmetry_cell_setting          triclinic
_symmetry_space_group_name_Hall 'P 1'
_symmetry_space_group_name_H-M  'P 1'
_symmetry_Int_Tables_number     1

_symmetry_equiv_pos_as_xyz 'x,y,z'

loop_
_atom_site_label
_atom_site_type_symbol
_atom_site_fract_x
_atom_site_fract_y
_atom_site_fract_z
_atom_site_charge
Zn       Zn     0.011320000000     0.450920000000     0.772380000000     0.436533   
Zn       Zn     0.488680000000     0.261060000000     0.439600000000     0.436533   
Zn       Zn     0.678540000000     0.227620000000     0.738940000000     0.436533   
Zn       Zn     0.821460000000     0.560400000000     0.549080000000     0.436533   
Zn       Zn     0.321460000000     0.772380000000     0.261060000000     0.436533   
Zn       Zn     0.178540000000     0.439600000000     0.450920000000     0.436533   
Zn       Zn     0.988680000000     0.549080000000     0.227620000000     0.436533   
Zn       Zn     0.511320000000     0.738940000000     0.560400000000     0.436533   
H        H      0.873400000000     0.534100000000     0.931100000000     0.0665403  
H        H      0.014200000000     0.683900000000     0.024300000000     0.0665403  
H        H      0.149500000000     0.741100000000     0.999000000000     0.0665403  
H        H      0.188300000000     0.444600000000     0.813700000000     0.0665403  
H        H      0.250000000000     0.351900000000     0.844300000000     0.0665403  
H        H      0.996900000000     0.176600000000     0.833700000000     0.0665403  
H        H      0.945700000000     0.273600000000     0.800100000000     0.0665403  
H        H      0.302300000000     0.263600000000     0.910100000000     0.0665403  
H        H      0.235700000000     0.209800000000     0.802500000000     0.0665403  
H        H      0.626600000000     0.557700000000     0.660700000000     0.0665403  
H        H      0.485800000000     0.510100000000     0.669700000000     0.0665403  
H        H      0.350500000000     0.349500000000     0.591600000000     0.0665403  
H        H      0.311700000000     0.125400000000     0.256300000000     0.0665403  
H        H      0.250000000000     0.094300000000     0.101900000000     0.0665403  
H        H      0.503100000000     0.336800000000     0.179700000000     0.0665403  
H        H      0.554300000000     0.354400000000     0.327900000000     0.0665403  
H        H      0.197700000000     0.107800000000     0.961300000000     0.0665403  
H        H      0.264300000000     0.066800000000     0.974100000000     0.0665403  
H        H      0.603000000000     0.068900000000     0.442300000000     0.0665403  
H        H      0.659600000000     0.975700000000     0.489900000000     0.0665403  
H        H      0.742100000000     0.001000000000     0.650500000000     0.0665403  
H        H      0.630900000000     0.186300000000     0.874600000000     0.0665403  
H        H      0.507600000000     0.155700000000     0.905700000000     0.0665403  
H        H      0.342900000000     0.166300000000     0.663200000000     0.0665403  
H        H      0.473500000000     0.199900000000     0.645600000000     0.0665403  
H        H      0.353500000000     0.089900000000     0.892200000000     0.0665403  
H        H      0.407300000000     0.197500000000     0.933200000000     0.0665403  
H        H      0.897000000000     0.339300000000     0.465900000000     0.0665403  
H        H      0.840400000000     0.330300000000     0.316100000000     0.0665403  
H        H      0.757900000000     0.408400000000     0.258900000000     0.0665403  
H        H      0.869100000000     0.743700000000     0.555400000000     0.0665403  
H        H      0.992400000000     0.898100000000     0.648100000000     0.0665403  
H        H      0.157100000000     0.820300000000     0.823400000000     0.0665403  
H        H      0.026500000000     0.672100000000     0.726400000000     0.0665403  
H        H      0.146500000000     0.038700000000     0.736400000000     0.0665403  
H        H      0.092700000000     0.025900000000     0.790200000000     0.0665403  
H        H      0.397000000000     0.931100000000     0.557700000000     0.0665403  
H        H      0.340400000000     0.024300000000     0.510100000000     0.0665403  
H        H      0.257900000000     0.999000000000     0.349500000000     0.0665403  
H        H      0.369100000000     0.813700000000     0.125400000000     0.0665403  
H        H      0.492400000000     0.844300000000     0.094300000000     0.0665403  
H        H      0.657100000000     0.833700000000     0.336800000000     0.0665403  
H        H      0.526500000000     0.800100000000     0.354400000000     0.0665403  
H        H      0.646500000000     0.910100000000     0.107800000000     0.0665403  
H        H      0.592700000000     0.802500000000     0.066800000000     0.0665403  
H        H      0.103000000000     0.660700000000     0.534100000000     0.0665403  
H        H      0.159600000000     0.669700000000     0.683900000000     0.0665403  
H        H      0.242100000000     0.591600000000     0.741100000000     0.0665403  
H        H      0.130900000000     0.256300000000     0.444600000000     0.0665403  
H        H      0.007600000000     0.101900000000     0.351900000000     0.0665403  
H        H      0.842900000000     0.179700000000     0.176600000000     0.0665403  
H        H      0.973500000000     0.327900000000     0.273600000000     0.0665403  
H        H      0.853500000000     0.961300000000     0.263600000000     0.0665403  
H        H      0.907300000000     0.974100000000     0.209800000000     0.0665403  
H        H      0.126600000000     0.465900000000     0.068900000000     0.0665403  
H        H      0.985800000000     0.316100000000     0.975700000000     0.0665403  
H        H      0.850500000000     0.258900000000     0.001000000000     0.0665403  
H        H      0.811700000000     0.555400000000     0.186300000000     0.0665403  
H        H      0.750000000000     0.648100000000     0.155700000000     0.0665403  
H        H      0.003100000000     0.823400000000     0.166300000000     0.0665403  
H        H      0.054300000000     0.726400000000     0.199900000000     0.0665403  
H        H      0.697700000000     0.736400000000     0.089900000000     0.0665403  
H        H      0.764300000000     0.790200000000     0.197500000000     0.0665403  
H        H      0.373400000000     0.442300000000     0.339300000000     0.0665403  
H        H      0.514200000000     0.489900000000     0.330300000000     0.0665403  
H        H      0.649500000000     0.650500000000     0.408400000000     0.0665403  
H        H      0.688300000000     0.874600000000     0.743700000000     0.0665403  
H        H      0.750000000000     0.905700000000     0.898100000000     0.0665403  
H        H      0.496900000000     0.663200000000     0.820300000000     0.0665403  
H        H      0.445700000000     0.645600000000     0.672100000000     0.0665403  
H        H      0.802300000000     0.892200000000     0.038700000000     0.0665403  
H        H      0.735700000000     0.933200000000     0.025900000000     0.0665403  
C        C      0.850800000000     0.398300000000     0.811300000000     0.0459792  
C        C      0.932000000000     0.500100000000     0.869300000000     0.0459792  
C        C      0.930600000000     0.556900000000     0.927700000000     0.0459792  
C        C      0.012000000000     0.646300000000     0.980900000000     0.0459792  
C        C      0.094000000000     0.679700000000     0.966900000000     0.0459792  
C        C      0.089200000000     0.620400000000     0.906200000000     0.0459792  
C        C      0.169000000000     0.642800000000     0.886000000000     0.0459792  
C        C      0.149400000000     0.389800000000     0.818200000000     0.0459792  
C        C      0.187100000000     0.334100000000     0.835600000000     0.0459792  
C        C      0.128500000000     0.252200000000     0.839500000000     0.0459792  
C        C      0.037500000000     0.230400000000     0.828900000000     0.0459792  
C        C      0.009300000000     0.290600000000     0.811100000000     0.0459792  
C        C      0.241600000000     0.206000000000     0.859600000000     0.0459792  
C        C      0.649200000000     0.460500000000     0.547500000000     0.0459792  
C        C      0.568000000000     0.437300000000     0.568100000000     0.0459792  
C        C      0.569400000000     0.497100000000     0.626300000000     0.0459792  
C        C      0.488000000000     0.468900000000     0.634300000000     0.0459792  
C        C      0.406000000000     0.372900000000     0.585700000000     0.0459792  
C        C      0.410800000000     0.317000000000     0.531200000000     0.0459792  
C        C      0.331000000000     0.217000000000     0.473800000000     0.0459792  
C        C      0.350600000000     0.168800000000     0.240400000000     0.0459792  
C        C      0.312900000000     0.148500000000     0.147000000000     0.0459792  
C        C      0.371500000000     0.211000000000     0.123700000000     0.0459792  
C        C      0.462500000000     0.291400000000     0.192900000000     0.0459792  
C        C      0.490700000000     0.301800000000     0.281300000000     0.0459792  
C        C      0.258400000000     0.118000000000     0.964400000000     0.0459792  
C        C      0.587000000000     0.188700000000     0.539500000000     0.0459792  
C        C      0.630800000000     0.130700000000     0.562700000000     0.0459792  
C        C      0.629200000000     0.072300000000     0.502900000000     0.0459792  
C        C      0.665400000000     0.019100000000     0.531100000000     0.0459792  
C        C      0.712800000000     0.033100000000     0.627100000000     0.0459792  
C        C      0.714200000000     0.093800000000     0.683000000000     0.0459792  
C        C      0.756800000000     0.114000000000     0.783000000000     0.0459792  
C        C      0.571600000000     0.181800000000     0.831200000000     0.0459792  
C        C      0.498500000000     0.164400000000     0.851500000000     0.0459792  
C        C      0.412700000000     0.160500000000     0.789000000000     0.0459792  
C        C      0.401500000000     0.171100000000     0.708600000000     0.0459792  
C        C      0.479500000000     0.188900000000     0.698200000000     0.0459792  
C        C      0.346400000000     0.140400000000     0.882000000000     0.0459792  
C        C      0.913000000000     0.452500000000     0.601700000000     0.0459792  
C        C      0.869200000000     0.431900000000     0.499900000000     0.0459792  
C        C      0.870800000000     0.373700000000     0.443100000000     0.0459792  
C        C      0.834600000000     0.365700000000     0.353700000000     0.0459792  
C        C      0.787200000000     0.414300000000     0.320300000000     0.0459792  
C        C      0.785800000000     0.468800000000     0.379600000000     0.0459792  
C        C      0.743200000000     0.526200000000     0.357200000000     0.0459792  
C        C      0.928400000000     0.759600000000     0.610200000000     0.0459792  
C        C      0.001500000000     0.853000000000     0.665900000000     0.0459792  
C        C      0.087300000000     0.876300000000     0.747800000000     0.0459792  
C        C      0.098500000000     0.807100000000     0.769600000000     0.0459792  
C        C      0.020500000000     0.718700000000     0.709400000000     0.0459792  
C        C      0.153600000000     0.035600000000     0.794000000000     0.0459792  
C        C      0.250000000000     0.125000000000     0.875000000000     0.0459792  
C        C      0.413000000000     0.811300000000     0.460500000000     0.0459792  
C        C      0.369200000000     0.869300000000     0.437300000000     0.0459792  
C        C      0.370800000000     0.927700000000     0.497100000000     0.0459792  
C        C      0.334600000000     0.980900000000     0.468900000000     0.0459792  
C        C      0.287200000000     0.966900000000     0.372900000000     0.0459792  
C        C      0.285800000000     0.906200000000     0.317000000000     0.0459792  
C        C      0.243200000000     0.886000000000     0.217000000000     0.0459792  
C        C      0.428400000000     0.818200000000     0.168800000000     0.0459792  
C        C      0.501500000000     0.835600000000     0.148500000000     0.0459792  
C        C      0.587300000000     0.839500000000     0.211000000000     0.0459792  
C        C      0.598500000000     0.828900000000     0.291400000000     0.0459792  
C        C      0.520500000000     0.811100000000     0.301800000000     0.0459792  
C        C      0.653600000000     0.859600000000     0.118000000000     0.0459792  
C        C      0.087000000000     0.547500000000     0.398300000000     0.0459792  
C        C      0.130800000000     0.568100000000     0.500100000000     0.0459792  
C        C      0.129200000000     0.626300000000     0.556900000000     0.0459792  
C        C      0.165400000000     0.634300000000     0.646300000000     0.0459792  
C        C      0.212800000000     0.585700000000     0.679700000000     0.0459792  
C        C      0.214200000000     0.531200000000     0.620400000000     0.0459792  
C        C      0.256800000000     0.473800000000     0.642800000000     0.0459792  
C        C      0.071600000000     0.240400000000     0.389800000000     0.0459792  
C        C      0.998500000000     0.147000000000     0.334100000000     0.0459792  
C        C      0.912700000000     0.123700000000     0.252200000000     0.0459792  
C        C      0.901500000000     0.192900000000     0.230400000000     0.0459792  
C        C      0.979500000000     0.281300000000     0.290600000000     0.0459792  
C        C      0.846400000000     0.964400000000     0.206000000000     0.0459792  
C        C      0.149200000000     0.601700000000     0.188700000000     0.0459792  
C        C      0.068000000000     0.499900000000     0.130700000000     0.0459792  
C        C      0.069400000000     0.443100000000     0.072300000000     0.0459792  
C        C      0.988000000000     0.353700000000     0.019100000000     0.0459792  
C        C      0.906000000000     0.320300000000     0.033100000000     0.0459792  
C        C      0.910800000000     0.379600000000     0.093800000000     0.0459792  
C        C      0.831000000000     0.357200000000     0.114000000000     0.0459792  
C        C      0.850600000000     0.610200000000     0.181800000000     0.0459792  
C        C      0.812900000000     0.665900000000     0.164400000000     0.0459792  
C        C      0.871500000000     0.747800000000     0.160500000000     0.0459792  
C        C      0.962500000000     0.769600000000     0.171100000000     0.0459792  
C        C      0.990700000000     0.709400000000     0.188900000000     0.0459792  
C        C      0.758400000000     0.794000000000     0.140400000000     0.0459792  
C        C      0.350800000000     0.539500000000     0.452500000000     0.0459792  
C        C      0.432000000000     0.562700000000     0.431900000000     0.0459792  
C        C      0.430600000000     0.502900000000     0.373700000000     0.0459792  
C        C      0.512000000000     0.531100000000     0.365700000000     0.0459792  
C        C      0.594000000000     0.627100000000     0.414300000000     0.0459792  
C        C      0.589200000000     0.683000000000     0.468800000000     0.0459792  
C        C      0.669000000000     0.783000000000     0.526200000000     0.0459792  
C        C      0.649400000000     0.831200000000     0.759600000000     0.0459792  
C        C      0.687100000000     0.851500000000     0.853000000000     0.0459792  
C        C      0.628500000000     0.789000000000     0.876300000000     0.0459792  
C        C      0.537500000000     0.708600000000     0.807100000000     0.0459792  
C        C      0.509300000000     0.698200000000     0.718700000000     0.0459792  
C        C      0.741600000000     0.882000000000     0.035600000000     0.0459792  
C        C      0.750000000000     0.875000000000     0.125000000000     0.0459792  
N        N      0.063800000000     0.370700000000     0.807900000000    -0.17261    
N        N      0.008700000000     0.532200000000     0.860100000000    -0.17261    
N        N      0.436200000000     0.244100000000     0.306900000000    -0.17261    
N        N      0.491300000000     0.351400000000     0.523500000000    -0.17261    
N        N      0.562800000000     0.192100000000     0.755900000000    -0.17261    
N        N      0.672100000000     0.139900000000     0.648600000000    -0.17261    
N        N      0.937200000000     0.693100000000     0.629300000000    -0.17261    
N        N      0.827900000000     0.476500000000     0.467800000000    -0.17261    
N        N      0.437200000000     0.807900000000     0.244100000000    -0.17261    
N        N      0.327900000000     0.860100000000     0.351400000000    -0.17261    
N        N      0.062800000000     0.306900000000     0.370700000000    -0.17261    
N        N      0.172100000000     0.523500000000     0.532200000000    -0.17261    
N        N      0.936200000000     0.629300000000     0.192100000000    -0.17261    
N        N      0.991300000000     0.467800000000     0.139900000000    -0.17261    
N        N      0.563800000000     0.755900000000     0.693100000000    -0.17261    
N        N      0.508700000000     0.648600000000     0.476500000000    -0.17261    
O        O      0.864400000000     0.358370000000     0.761770000000    -0.25988    
O        O      0.773800000000     0.361170000000     0.816770000000    -0.25988    
O        O      0.151600000000     0.578500000000     0.827900000000    -0.25988    
O        O      0.244800000000     0.725800000000     0.924600000000    -0.25988    
O        O      0.153300000000     0.190360000000     0.855060000000    -0.25988    
O        O      0.635600000000     0.397370000000     0.493970000000    -0.25988    
O        O      0.726200000000     0.542970000000     0.587370000000    -0.25988    
O        O      0.348400000000     0.176300000000     0.426900000000    -0.25988    
O        O      0.255200000000     0.179800000000     0.481000000000    -0.25988    
O        O      0.346700000000     0.201760000000     0.037060000000    -0.25988    
O        O      0.596600000000     0.238230000000     0.602630000000    -0.25988    
O        O      0.544400000000     0.183230000000     0.457030000000    -0.25988    
O        O      0.750600000000     0.172100000000     0.823700000000    -0.25988    
O        O      0.801200000000     0.075400000000     0.820200000000    -0.25988    
O        O      0.335300000000     0.144940000000     0.798240000000    -0.25988    
O        O      0.903400000000     0.506030000000     0.641630000000    -0.25988    
O        O      0.955600000000     0.412630000000     0.638830000000    -0.25988    
O        O      0.749400000000     0.573100000000     0.421500000000    -0.25988    
O        O      0.698800000000     0.519000000000     0.274200000000    -0.25988    
O        O      0.164700000000     0.962940000000     0.809640000000    -0.25988    
O        O      0.403400000000     0.761770000000     0.397370000000    -0.25988    
O        O      0.455600000000     0.816770000000     0.542970000000    -0.25988    
O        O      0.249400000000     0.827900000000     0.176300000000    -0.25988    
O        O      0.198800000000     0.924600000000     0.179800000000    -0.25988    
O        O      0.664700000000     0.855060000000     0.201760000000    -0.25988    
O        O      0.096600000000     0.493970000000     0.358370000000    -0.25988    
O        O      0.044400000000     0.587370000000     0.361170000000    -0.25988    
O        O      0.250600000000     0.426900000000     0.578500000000    -0.25988    
O        O      0.301200000000     0.481000000000     0.725800000000    -0.25988    
O        O      0.835300000000     0.037060000000     0.190360000000    -0.25988    
O        O      0.135600000000     0.641630000000     0.238230000000    -0.25988    
O        O      0.226200000000     0.638830000000     0.183230000000    -0.25988    
O        O      0.848400000000     0.421500000000     0.172100000000    -0.25988    
O        O      0.755200000000     0.274200000000     0.075400000000    -0.25988    
O        O      0.846700000000     0.809640000000     0.144940000000    -0.25988    
O        O      0.364400000000     0.602630000000     0.506030000000    -0.25988    
O        O      0.273800000000     0.457030000000     0.412630000000    -0.25988    
O        O      0.651600000000     0.823700000000     0.573100000000    -0.25988    
O        O      0.744800000000     0.820200000000     0.519000000000    -0.25988    
O        O      0.653300000000     0.798240000000     0.962940000000    -0.25988    


