data_TEQPAI_original

_audit_creation_method RASPA-1.0
_audit_creation_date 2022-1-28
_audit_author_name 'Felipe Lopes de Oliveira <felipe.lopes.oliveira@ibm.com>'

_cell_length_a    14.489
_cell_length_b    18.115
_cell_length_c    22.113
_cell_angle_alpha 90
_cell_angle_beta  90
_cell_angle_gamma 90
_cell_volume      5803.96

_symmetry_cell_setting          triclinic
_symmetry_space_group_name_Hall 'P 1'
_symmetry_space_group_name_H-M  'P 1'
_symmetry_Int_Tables_number     1

_symmetry_equiv_pos_as_xyz 'x,y,z'

loop_
_atom_site_label
_atom_site_type_symbol
_atom_site_fract_x
_atom_site_fract_y
_atom_site_fract_z
_atom_site_charge
Zn       Zn     0.492170000000     0.329990000000     0.750680000000     0.436594   
Zn       Zn     0.655680000000     0.252830000000     0.829180000000     0.436594   
Zn       Zn     0.640660000000     0.237100000000     0.684190000000     0.436594   
Zn       Zn     0.495120000000     0.155430000000     0.774570000000     0.436594   
Zn       Zn     0.507830000000     0.670010000000     0.250680000000     0.436594   
Zn       Zn     0.344320000000     0.747170000000     0.329180000000     0.436594   
Zn       Zn     0.359340000000     0.762900000000     0.184190000000     0.436594   
Zn       Zn     0.504880000000     0.844570000000     0.274570000000     0.436594   
Zn       Zn     0.007830000000     0.829990000000     0.750680000000     0.436594   
Zn       Zn     0.844320000000     0.752830000000     0.829180000000     0.436594   
Zn       Zn     0.859340000000     0.737100000000     0.684190000000     0.436594   
Zn       Zn     0.004880000000     0.655430000000     0.774570000000     0.436594   
Zn       Zn     0.992170000000     0.170010000000     0.250680000000     0.436594   
Zn       Zn     0.155680000000     0.247170000000     0.329180000000     0.436594   
Zn       Zn     0.140660000000     0.262900000000     0.184190000000     0.436594   
Zn       Zn     0.995120000000     0.344570000000     0.274570000000     0.436594   
H        H      0.127900000000     0.151600000000     0.843400000000     0.305786   
H        H      0.214800000000     0.201900000000     0.852700000000     0.305786   
H        H      0.223100000000     0.128400000000     0.815600000000     0.305786   
H        H      0.581300000000     0.321200000000     0.979200000000     0.305786   
H        H      0.528000000000     0.328000000000     0.040700000000     0.305786   
H        H      0.616400000000     0.375900000000     0.029200000000     0.305786   
H        H      0.530400000000     0.406100000000     0.115800000000     0.305786   
H        H      0.458300000000     0.439100000000     0.161200000000     0.305786   
H        H      0.554400000000     0.477500000000     0.152700000000     0.305786   
H        H      0.328100000000     0.045400000000     0.965400000000     0.305786   
H        H      0.377100000000     0.059400000000     0.903300000000     0.305786   
H        H      0.341800000000     0.126300000000     0.941800000000     0.305786   
H        H      0.022100000000     0.154900000000     0.839200000000     0.305786   
H        H      0.930000000000     0.122700000000     0.812900000000     0.305786   
H        H      0.929500000000     0.198500000000     0.847200000000     0.305786   
H        H      0.300700000000     0.925400000000     0.069500000000     0.305786   
H        H      0.319700000000     0.944900000000     0.001600000000     0.305786   
H        H      0.284800000000     0.006100000000     0.046100000000     0.305786   
H        H      0.872100000000     0.848400000000     0.343400000000     0.305786   
H        H      0.785200000000     0.798100000000     0.352700000000     0.305786   
H        H      0.776900000000     0.871600000000     0.315600000000     0.305786   
H        H      0.418700000000     0.678800000000     0.479200000000     0.305786   
H        H      0.472000000000     0.672000000000     0.540700000000     0.305786   
H        H      0.383600000000     0.624100000000     0.529200000000     0.305786   
H        H      0.469600000000     0.593900000000     0.615800000000     0.305786   
H        H      0.541700000000     0.560900000000     0.661200000000     0.305786   
H        H      0.445600000000     0.522500000000     0.652700000000     0.305786   
H        H      0.671900000000     0.954600000000     0.465400000000     0.305786   
H        H      0.622900000000     0.940600000000     0.403300000000     0.305786   
H        H      0.658200000000     0.873700000000     0.441800000000     0.305786   
H        H      0.977900000000     0.845100000000     0.339200000000     0.305786   
H        H      0.070000000000     0.877300000000     0.312900000000     0.305786   
H        H      0.070500000000     0.801500000000     0.347200000000     0.305786   
H        H      0.699300000000     0.074600000000     0.569500000000     0.305786   
H        H      0.680300000000     0.055100000000     0.501600000000     0.305786   
H        H      0.715200000000     0.993900000000     0.546100000000     0.305786   
H        H      0.372100000000     0.651600000000     0.843400000000     0.305786   
H        H      0.285200000000     0.701900000000     0.852700000000     0.305786   
H        H      0.276900000000     0.628400000000     0.815600000000     0.305786   
H        H      0.918700000000     0.821200000000     0.979200000000     0.305786   
H        H      0.972000000000     0.828000000000     0.040700000000     0.305786   
H        H      0.883600000000     0.875900000000     0.029200000000     0.305786   
H        H      0.969600000000     0.906100000000     0.115800000000     0.305786   
H        H      0.041700000000     0.939100000000     0.161200000000     0.305786   
H        H      0.945600000000     0.977500000000     0.152700000000     0.305786   
H        H      0.171900000000     0.545400000000     0.965400000000     0.305786   
H        H      0.122900000000     0.559400000000     0.903300000000     0.305786   
H        H      0.158200000000     0.626300000000     0.941800000000     0.305786   
H        H      0.477900000000     0.654900000000     0.839200000000     0.305786   
H        H      0.570000000000     0.622700000000     0.812900000000     0.305786   
H        H      0.570500000000     0.698500000000     0.847200000000     0.305786   
H        H      0.199300000000     0.425400000000     0.069500000000     0.305786   
H        H      0.180300000000     0.444900000000     0.001600000000     0.305786   
H        H      0.215200000000     0.506100000000     0.046100000000     0.305786   
H        H      0.627900000000     0.348400000000     0.343400000000     0.305786   
H        H      0.714800000000     0.298100000000     0.352700000000     0.305786   
H        H      0.723100000000     0.371600000000     0.315600000000     0.305786   
H        H      0.081300000000     0.178800000000     0.479200000000     0.305786   
H        H      0.028000000000     0.172000000000     0.540700000000     0.305786   
H        H      0.116400000000     0.124100000000     0.529200000000     0.305786   
H        H      0.030400000000     0.093900000000     0.615800000000     0.305786   
H        H      0.958300000000     0.060900000000     0.661200000000     0.305786   
H        H      0.054400000000     0.022500000000     0.652700000000     0.305786   
H        H      0.828100000000     0.454600000000     0.465400000000     0.305786   
H        H      0.877100000000     0.440600000000     0.403300000000     0.305786   
H        H      0.841800000000     0.373700000000     0.441800000000     0.305786   
H        H      0.522100000000     0.345100000000     0.339200000000     0.305786   
H        H      0.430000000000     0.377300000000     0.312900000000     0.305786   
H        H      0.429500000000     0.301500000000     0.347200000000     0.305786   
H        H      0.800700000000     0.574600000000     0.569500000000     0.305786   
H        H      0.819700000000     0.555100000000     0.501600000000     0.305786   
H        H      0.784800000000     0.493900000000     0.546100000000     0.305786   
C        C      0.331200000000     0.254300000000     0.743000000000    -0.106115   
C        C      0.227400000000     0.247500000000     0.733900000000    -0.106115   
C        C      0.161900000000     0.208400000000     0.771200000000    -0.106115   
C        C      0.183700000000     0.169400000000     0.825100000000    -0.106115   
C        C      0.513000000000     0.377800000000     0.869400000000    -0.106115   
C        C      0.482600000000     0.421600000000     0.922800000000    -0.106115   
C        C      0.504400000000     0.414000000000     0.984600000000    -0.106115   
C        C      0.466400000000     0.473000000000     0.020200000000    -0.106115   
C        C      0.419200000000     0.523100000000     0.984800000000    -0.106115   
C        C      0.465900000000     0.498400000000     0.082100000000    -0.106115   
C        C      0.425700000000     0.564300000000     0.089000000000    -0.106115   
C        C      0.562700000000     0.354500000000     0.010700000000    -0.106115   
C        C      0.506000000000     0.450900000000     0.132600000000    -0.106115   
C        C      0.557900000000     0.164600000000     0.905900000000    -0.106115   
C        C      0.535400000000     0.120400000000     0.961700000000    -0.106115   
C        C      0.458500000000     0.081600000000     0.974600000000    -0.106115   
C        C      0.368500000000     0.077900000000     0.943600000000    -0.106115   
C        C      0.814100000000     0.222800000000     0.730800000000    -0.106115   
C        C      0.913400000000     0.230000000000     0.725600000000    -0.106115   
C        C      0.980400000000     0.204100000000     0.765900000000    -0.106115   
C        C      0.072000000000     0.222300000000     0.746800000000    -0.106115   
C        C      0.069700000000     0.262900000000     0.696900000000    -0.106115   
C        C      0.964200000000     0.167100000000     0.820600000000    -0.106115   
C        C      0.466000000000     0.886400000000     0.143800000000    -0.106115   
C        C      0.480300000000     0.949400000000     0.102300000000    -0.106115   
C        C      0.424300000000     0.982600000000     0.058400000000    -0.106115   
C        C      0.475800000000     0.037700000000     0.027800000000    -0.106115   
C        C      0.562200000000     0.046500000000     0.053200000000    -0.106115   
C        C      0.322600000000     0.962900000000     0.042400000000    -0.106115   
C        C      0.426700000000     0.616300000000     0.136100000000    -0.106115   
C        C      0.668800000000     0.745700000000     0.243000000000    -0.106115   
C        C      0.772600000000     0.752500000000     0.233900000000    -0.106115   
C        C      0.838100000000     0.791600000000     0.271200000000    -0.106115   
C        C      0.816300000000     0.830600000000     0.325100000000    -0.106115   
C        C      0.487000000000     0.622200000000     0.369400000000    -0.106115   
C        C      0.517400000000     0.578400000000     0.422800000000    -0.106115   
C        C      0.495600000000     0.586000000000     0.484600000000    -0.106115   
C        C      0.533600000000     0.527000000000     0.520200000000    -0.106115   
C        C      0.580800000000     0.476900000000     0.484800000000    -0.106115   
C        C      0.534100000000     0.501600000000     0.582100000000    -0.106115   
C        C      0.574300000000     0.435700000000     0.589000000000    -0.106115   
C        C      0.437300000000     0.645500000000     0.510700000000    -0.106115   
C        C      0.494000000000     0.549100000000     0.632600000000    -0.106115   
C        C      0.442100000000     0.835400000000     0.405900000000    -0.106115   
C        C      0.464600000000     0.879600000000     0.461700000000    -0.106115   
C        C      0.541500000000     0.918400000000     0.474600000000    -0.106115   
C        C      0.631500000000     0.922100000000     0.443600000000    -0.106115   
C        C      0.185900000000     0.777200000000     0.230800000000    -0.106115   
C        C      0.086600000000     0.770000000000     0.225600000000    -0.106115   
C        C      0.019600000000     0.795900000000     0.265900000000    -0.106115   
C        C      0.928000000000     0.777700000000     0.246800000000    -0.106115   
C        C      0.930300000000     0.737100000000     0.196900000000    -0.106115   
C        C      0.035800000000     0.832900000000     0.320600000000    -0.106115   
C        C      0.534000000000     0.113600000000     0.643800000000    -0.106115   
C        C      0.519700000000     0.050600000000     0.602300000000    -0.106115   
C        C      0.575700000000     0.017400000000     0.558400000000    -0.106115   
C        C      0.524200000000     0.962300000000     0.527800000000    -0.106115   
C        C      0.437800000000     0.953500000000     0.553200000000    -0.106115   
C        C      0.677400000000     0.037100000000     0.542400000000    -0.106115   
C        C      0.573300000000     0.383700000000     0.636100000000    -0.106115   
C        C      0.168800000000     0.754300000000     0.743000000000    -0.106115   
C        C      0.272600000000     0.747500000000     0.733900000000    -0.106115   
C        C      0.338100000000     0.708400000000     0.771200000000    -0.106115   
C        C      0.316300000000     0.669400000000     0.825100000000    -0.106115   
C        C      0.987000000000     0.877800000000     0.869400000000    -0.106115   
C        C      0.017400000000     0.921600000000     0.922800000000    -0.106115   
C        C      0.995600000000     0.914000000000     0.984600000000    -0.106115   
C        C      0.033600000000     0.973000000000     0.020200000000    -0.106115   
C        C      0.080800000000     0.023100000000     0.984800000000    -0.106115   
C        C      0.034100000000     0.998400000000     0.082100000000    -0.106115   
C        C      0.074300000000     0.064300000000     0.089000000000    -0.106115   
C        C      0.937300000000     0.854500000000     0.010700000000    -0.106115   
C        C      0.994000000000     0.950900000000     0.132600000000    -0.106115   
C        C      0.942100000000     0.664600000000     0.905900000000    -0.106115   
C        C      0.964600000000     0.620400000000     0.961700000000    -0.106115   
C        C      0.041500000000     0.581600000000     0.974600000000    -0.106115   
C        C      0.131500000000     0.577900000000     0.943600000000    -0.106115   
C        C      0.685900000000     0.722800000000     0.730800000000    -0.106115   
C        C      0.586600000000     0.730000000000     0.725600000000    -0.106115   
C        C      0.519600000000     0.704100000000     0.765900000000    -0.106115   
C        C      0.428000000000     0.722300000000     0.746800000000    -0.106115   
C        C      0.430300000000     0.762900000000     0.696900000000    -0.106115   
C        C      0.535800000000     0.667100000000     0.820600000000    -0.106115   
C        C      0.034000000000     0.386400000000     0.143800000000    -0.106115   
C        C      0.019700000000     0.449400000000     0.102300000000    -0.106115   
C        C      0.075700000000     0.482600000000     0.058400000000    -0.106115   
C        C      0.024200000000     0.537700000000     0.027800000000    -0.106115   
C        C      0.937800000000     0.546500000000     0.053200000000    -0.106115   
C        C      0.177400000000     0.462900000000     0.042400000000    -0.106115   
C        C      0.073300000000     0.116300000000     0.136100000000    -0.106115   
C        C      0.831200000000     0.245700000000     0.243000000000    -0.106115   
C        C      0.727400000000     0.252500000000     0.233900000000    -0.106115   
C        C      0.661900000000     0.291600000000     0.271200000000    -0.106115   
C        C      0.683700000000     0.330600000000     0.325100000000    -0.106115   
C        C      0.013000000000     0.122200000000     0.369400000000    -0.106115   
C        C      0.982600000000     0.078400000000     0.422800000000    -0.106115   
C        C      0.004400000000     0.086000000000     0.484600000000    -0.106115   
C        C      0.966400000000     0.027000000000     0.520200000000    -0.106115   
C        C      0.919200000000     0.976900000000     0.484800000000    -0.106115   
C        C      0.965900000000     0.001600000000     0.582100000000    -0.106115   
C        C      0.925700000000     0.935700000000     0.589000000000    -0.106115   
C        C      0.062700000000     0.145500000000     0.510700000000    -0.106115   
C        C      0.006000000000     0.049100000000     0.632600000000    -0.106115   
C        C      0.057900000000     0.335400000000     0.405900000000    -0.106115   
C        C      0.035400000000     0.379600000000     0.461700000000    -0.106115   
C        C      0.958500000000     0.418400000000     0.474600000000    -0.106115   
C        C      0.868500000000     0.422100000000     0.443600000000    -0.106115   
C        C      0.314100000000     0.277200000000     0.230800000000    -0.106115   
C        C      0.413400000000     0.270000000000     0.225600000000    -0.106115   
C        C      0.480400000000     0.295900000000     0.265900000000    -0.106115   
C        C      0.572000000000     0.277700000000     0.246800000000    -0.106115   
C        C      0.569700000000     0.237100000000     0.196900000000    -0.106115   
C        C      0.464200000000     0.332900000000     0.320600000000    -0.106115   
C        C      0.966000000000     0.613600000000     0.643800000000    -0.106115   
C        C      0.980300000000     0.550600000000     0.602300000000    -0.106115   
C        C      0.924300000000     0.517400000000     0.558400000000    -0.106115   
C        C      0.975800000000     0.462300000000     0.527800000000    -0.106115   
C        C      0.062200000000     0.453500000000     0.553200000000    -0.106115   
C        C      0.822600000000     0.537100000000     0.542400000000    -0.106115   
C        C      0.926700000000     0.883700000000     0.636100000000    -0.106115   
S        S      0.179700000000     0.293900000000     0.671500000000     0.0184588  
S        S      0.418900000000     0.501000000000     0.908200000000     0.0184588  
S        S      0.382300000000     0.600600000000     0.021100000000     0.0184588  
S        S      0.628500000000     0.108200000000     0.012300000000     0.0184588  
S        S      0.963400000000     0.277900000000     0.664600000000     0.0184588  
S        S      0.586500000000     0.988800000000     0.110500000000     0.0184588  
S        S      0.820300000000     0.706100000000     0.171500000000     0.0184588  
S        S      0.581100000000     0.499000000000     0.408200000000     0.0184588  
S        S      0.617700000000     0.399400000000     0.521100000000     0.0184588  
S        S      0.371500000000     0.891800000000     0.512300000000     0.0184588  
S        S      0.036600000000     0.722100000000     0.164600000000     0.0184588  
S        S      0.413500000000     0.011200000000     0.610500000000     0.0184588  
S        S      0.320300000000     0.793900000000     0.671500000000     0.0184588  
S        S      0.081100000000     0.001000000000     0.908200000000     0.0184588  
S        S      0.117700000000     0.100600000000     0.021100000000     0.0184588  
S        S      0.871500000000     0.608200000000     0.012300000000     0.0184588  
S        S      0.536600000000     0.777900000000     0.664600000000     0.0184588  
S        S      0.913500000000     0.488800000000     0.110500000000     0.0184588  
S        S      0.679700000000     0.206100000000     0.171500000000     0.0184588  
S        S      0.918900000000     0.999000000000     0.408200000000     0.0184588  
S        S      0.882300000000     0.899400000000     0.521100000000     0.0184588  
S        S      0.128500000000     0.391800000000     0.512300000000     0.0184588  
S        S      0.463400000000     0.222100000000     0.164600000000     0.0184588  
S        S      0.086500000000     0.511200000000     0.610500000000     0.0184588  
O        O      0.575500000000     0.247500000000     0.757800000000    -0.321371   
O        O      0.369800000000     0.211200000000     0.777300000000    -0.321371   
O        O      0.369100000000     0.310200000000     0.714800000000    -0.321371   
O        O      0.471600000000     0.390300000000     0.821700000000    -0.321371   
O        O      0.576500000000     0.336500000000     0.878900000000    -0.321371   
O        O      0.639700000000     0.189200000000     0.898500000000    -0.321371   
O        O      0.494700000000     0.172600000000     0.866800000000    -0.321371   
O        O      0.776500000000     0.199400000000     0.774700000000    -0.321371   
O        O      0.773500000000     0.250500000000     0.683800000000    -0.321371   
O        O      0.382600000000     0.849400000000     0.136400000000    -0.321371   
O        O      0.522900000000     0.867400000000     0.180700000000    -0.321371   
O        O      0.461800000000     0.597100000000     0.189800000000    -0.321371   
O        O      0.390200000000     0.677700000000     0.127800000000    -0.321371   
O        O      0.424500000000     0.752500000000     0.257800000000    -0.321371   
O        O      0.630200000000     0.788800000000     0.277300000000    -0.321371   
O        O      0.630900000000     0.689800000000     0.214800000000    -0.321371   
O        O      0.528400000000     0.609700000000     0.321700000000    -0.321371   
O        O      0.423500000000     0.663500000000     0.378900000000    -0.321371   
O        O      0.360300000000     0.810800000000     0.398500000000    -0.321371   
O        O      0.505300000000     0.827400000000     0.366800000000    -0.321371   
O        O      0.223500000000     0.800600000000     0.274700000000    -0.321371   
O        O      0.226500000000     0.749500000000     0.183800000000    -0.321371   
O        O      0.617400000000     0.150600000000     0.636400000000    -0.321371   
O        O      0.477100000000     0.132600000000     0.680700000000    -0.321371   
O        O      0.538200000000     0.402900000000     0.689800000000    -0.321371   
O        O      0.609800000000     0.322300000000     0.627800000000    -0.321371   
O        O      0.924500000000     0.747500000000     0.757800000000    -0.321371   
O        O      0.130200000000     0.711200000000     0.777300000000    -0.321371   
O        O      0.130900000000     0.810200000000     0.714800000000    -0.321371   
O        O      0.028400000000     0.890300000000     0.821700000000    -0.321371   
O        O      0.923500000000     0.836500000000     0.878900000000    -0.321371   
O        O      0.860300000000     0.689200000000     0.898500000000    -0.321371   
O        O      0.005300000000     0.672600000000     0.866800000000    -0.321371   
O        O      0.723500000000     0.699400000000     0.774700000000    -0.321371   
O        O      0.726500000000     0.750500000000     0.683800000000    -0.321371   
O        O      0.117400000000     0.349400000000     0.136400000000    -0.321371   
O        O      0.977100000000     0.367400000000     0.180700000000    -0.321371   
O        O      0.038200000000     0.097100000000     0.189800000000    -0.321371   
O        O      0.109800000000     0.177700000000     0.127800000000    -0.321371   
O        O      0.075500000000     0.252500000000     0.257800000000    -0.321371   
O        O      0.869800000000     0.288800000000     0.277300000000    -0.321371   
O        O      0.869100000000     0.189800000000     0.214800000000    -0.321371   
O        O      0.971600000000     0.109700000000     0.321700000000    -0.321371   
O        O      0.076500000000     0.163500000000     0.378900000000    -0.321371   
O        O      0.139700000000     0.310800000000     0.398500000000    -0.321371   
O        O      0.994700000000     0.327400000000     0.366800000000    -0.321371   
O        O      0.276500000000     0.300600000000     0.274700000000    -0.321371   
O        O      0.273500000000     0.249500000000     0.183800000000    -0.321371   
O        O      0.882600000000     0.650600000000     0.636400000000    -0.321371   
O        O      0.022900000000     0.632600000000     0.680700000000    -0.321371   
O        O      0.961800000000     0.902900000000     0.689800000000    -0.321371   
O        O      0.890200000000     0.822300000000     0.627800000000    -0.321371   


