data_TESGUU_original

_audit_creation_method RASPA-1.0
_audit_creation_date 2022-1-28
_audit_author_name 'Felipe Lopes de Oliveira <felipe.lopes.oliveira@ibm.com>'

_cell_length_a    9.7744
_cell_length_b    11.2065
_cell_length_c    14.7201
_cell_angle_alpha 91.0598
_cell_angle_beta  90
_cell_angle_gamma 90
_cell_volume      1612.12

_symmetry_cell_setting          triclinic
_symmetry_space_group_name_Hall 'P 1'
_symmetry_space_group_name_H-M  'P 1'
_symmetry_Int_Tables_number     1

_symmetry_equiv_pos_as_xyz 'x,y,z'

loop_
_atom_site_label
_atom_site_type_symbol
_atom_site_fract_x
_atom_site_fract_y
_atom_site_fract_z
_atom_site_charge
Zn       Zn     0.920990000000     0.755740000000     0.132350000000     0.526023   
Zn       Zn     0.108280000000     0.737680000000     0.310520000000     0.526023   
Zn       Zn     0.420990000000     0.744260000000     0.367650000000     0.526023   
Zn       Zn     0.608280000000     0.762320000000     0.189480000000     0.526023   
Zn       Zn     0.079010000000     0.244260000000     0.867650000000     0.526023   
Zn       Zn     0.891720000000     0.262320000000     0.689480000000     0.526023   
Zn       Zn     0.579010000000     0.255740000000     0.632350000000     0.526023   
Zn       Zn     0.391720000000     0.237680000000     0.810520000000     0.526023   
Zn       Zn     0.000000000000     0.500000000000     0.000000000000     0.526023   
Zn       Zn     0.500000000000     0.000000000000     0.500000000000     0.526023   
Zn       Zn     0.000000000000     0.000000000000     0.000000000000     0.526023   
Zn       Zn     0.500000000000     0.500000000000     0.500000000000     0.526023   
H        H      0.757500000000     0.866500000000     0.364700000000    -0.0490964  
H        H      0.038900000000     0.470600000000     0.262600000000    -0.0490964  
H        H      0.615300000000     0.555900000000     0.047800000000    -0.0490964  
H        H      0.197800000000     0.979800000000     0.227000000000    -0.0490964  
H        H      0.162400000000     0.695200000000     0.931100000000    -0.0490964  
H        H      0.701000000000     0.988500000000     0.007900000000    -0.0490964  
H        H      0.257500000000     0.633500000000     0.135300000000    -0.0490964  
H        H      0.538900000000     0.029400000000     0.237400000000    -0.0490964  
H        H      0.115300000000     0.944100000000     0.452200000000    -0.0490964  
H        H      0.697800000000     0.520200000000     0.273000000000    -0.0490964  
H        H      0.662400000000     0.804800000000     0.568900000000    -0.0490964  
H        H      0.201000000000     0.511500000000     0.492100000000    -0.0490964  
H        H      0.242500000000     0.133500000000     0.635300000000    -0.0490964  
H        H      0.961100000000     0.529400000000     0.737400000000    -0.0490964  
H        H      0.384700000000     0.444100000000     0.952200000000    -0.0490964  
H        H      0.802200000000     0.020200000000     0.773000000000    -0.0490964  
H        H      0.837600000000     0.304800000000     0.068900000000    -0.0490964  
H        H      0.299000000000     0.011500000000     0.992100000000    -0.0490964  
H        H      0.742500000000     0.366500000000     0.864700000000    -0.0490964  
H        H      0.461100000000     0.970600000000     0.762600000000    -0.0490964  
H        H      0.884700000000     0.055900000000     0.547800000000    -0.0490964  
H        H      0.302200000000     0.479800000000     0.727000000000    -0.0490964  
H        H      0.337600000000     0.195200000000     0.431100000000    -0.0490964  
H        H      0.799000000000     0.488500000000     0.507900000000    -0.0490964  
C        C      0.828700000000     0.833300000000     0.328300000000     0.387189   
C        C      0.018000000000     0.513800000000     0.209400000000     0.387189   
C        C      0.710100000000     0.572700000000     0.054500000000     0.387189   
C        C      0.133800000000     0.952700000000     0.182700000000     0.387189   
C        C      0.106100000000     0.742000000000     0.970500000000     0.387189   
C        C      0.719200000000     0.930100000000     0.052300000000     0.387189   
C        C      0.328700000000     0.666700000000     0.171700000000     0.387189   
C        C      0.518000000000     0.986200000000     0.290600000000     0.387189   
C        C      0.210100000000     0.927300000000     0.445500000000     0.387189   
C        C      0.633800000000     0.547300000000     0.317300000000     0.387189   
C        C      0.606100000000     0.758000000000     0.529500000000     0.387189   
C        C      0.219200000000     0.569900000000     0.447700000000     0.387189   
C        C      0.171300000000     0.166700000000     0.671700000000     0.387189   
C        C      0.982000000000     0.486200000000     0.790600000000     0.387189   
C        C      0.289900000000     0.427300000000     0.945500000000     0.387189   
C        C      0.866200000000     0.047300000000     0.817300000000     0.387189   
C        C      0.893900000000     0.258000000000     0.029500000000     0.387189   
C        C      0.280800000000     0.069900000000     0.947700000000     0.387189   
C        C      0.671300000000     0.333300000000     0.828300000000     0.387189   
C        C      0.482000000000     0.013800000000     0.709400000000     0.387189   
C        C      0.789900000000     0.072700000000     0.554500000000     0.387189   
C        C      0.366200000000     0.452700000000     0.682700000000     0.387189   
C        C      0.393900000000     0.242000000000     0.470500000000     0.387189   
C        C      0.780800000000     0.430100000000     0.552300000000     0.387189   
O        O      0.801000000000     0.812160000000     0.245200000000    -0.300552   
O        O      0.940170000000     0.814900000000     0.366700000000    -0.300552   
O        O      0.005150000000     0.626620000000     0.218300000000    -0.300552   
O        O      0.005710000000     0.455440000000     0.137540000000    -0.300552   
O        O      0.743000000000     0.652390000000     0.114240000000    -0.300552   
O        O      0.788920000000     0.515650000000     0.004950000000    -0.300552   
O        O      0.084790000000     0.848420000000     0.193250000000    -0.300552   
O        O      0.107130000000     0.022020000000     0.121020000000    -0.300552   
O        O      0.026720000000     0.684980000000     0.024160000000    -0.300552   
O        O      0.116460000000     0.850630000000     0.965140000000    -0.300552   
O        O      0.844340000000     0.897230000000     0.060950000000    -0.300552   
O        O      0.619690000000     0.893360000000     0.095990000000    -0.300552   
O        O      0.301000000000     0.687840000000     0.254800000000    -0.300552   
O        O      0.440170000000     0.685100000000     0.133300000000    -0.300552   
O        O      0.505150000000     0.873380000000     0.281700000000    -0.300552   
O        O      0.505710000000     0.044560000000     0.362460000000    -0.300552   
O        O      0.243000000000     0.847610000000     0.385760000000    -0.300552   
O        O      0.288920000000     0.984350000000     0.495050000000    -0.300552   
O        O      0.584790000000     0.651580000000     0.306750000000    -0.300552   
O        O      0.607130000000     0.477980000000     0.378980000000    -0.300552   
O        O      0.526720000000     0.815020000000     0.475840000000    -0.300552   
O        O      0.616460000000     0.649370000000     0.534860000000    -0.300552   
O        O      0.344340000000     0.602770000000     0.439050000000    -0.300552   
O        O      0.119690000000     0.606640000000     0.404010000000    -0.300552   
O        O      0.199000000000     0.187840000000     0.754800000000    -0.300552   
O        O      0.059830000000     0.185100000000     0.633300000000    -0.300552   
O        O      0.994850000000     0.373380000000     0.781700000000    -0.300552   
O        O      0.994290000000     0.544560000000     0.862460000000    -0.300552   
O        O      0.257000000000     0.347610000000     0.885760000000    -0.300552   
O        O      0.211080000000     0.484350000000     0.995050000000    -0.300552   
O        O      0.915210000000     0.151580000000     0.806750000000    -0.300552   
O        O      0.892870000000     0.977980000000     0.878980000000    -0.300552   
O        O      0.973280000000     0.315020000000     0.975840000000    -0.300552   
O        O      0.883540000000     0.149370000000     0.034860000000    -0.300552   
O        O      0.155660000000     0.102770000000     0.939050000000    -0.300552   
O        O      0.380310000000     0.106640000000     0.904010000000    -0.300552   
O        O      0.699000000000     0.312160000000     0.745200000000    -0.300552   
O        O      0.559830000000     0.314900000000     0.866700000000    -0.300552   
O        O      0.494850000000     0.126620000000     0.718300000000    -0.300552   
O        O      0.494290000000     0.955440000000     0.637540000000    -0.300552   
O        O      0.757000000000     0.152390000000     0.614240000000    -0.300552   
O        O      0.711080000000     0.015650000000     0.504950000000    -0.300552   
O        O      0.415210000000     0.348420000000     0.693250000000    -0.300552   
O        O      0.392870000000     0.522020000000     0.621020000000    -0.300552   
O        O      0.473280000000     0.184980000000     0.524160000000    -0.300552   
O        O      0.383540000000     0.350630000000     0.465140000000    -0.300552   
O        O      0.655660000000     0.397230000000     0.560950000000    -0.300552   
O        O      0.880310000000     0.393360000000     0.595990000000    -0.300552   


