data_TESGOO_original

_audit_creation_method RASPA-1.0
_audit_creation_date 2022-1-29
_audit_author_name 'Felipe Lopes de Oliveira <felipe.lopes.oliveira@ibm.com>'

_cell_length_a    9.8274
_cell_length_b    11.3108
_cell_length_c    14.5072
_cell_angle_alpha 91.5177
_cell_angle_beta  90
_cell_angle_gamma 90
_cell_volume      1611.99

_symmetry_cell_setting          triclinic
_symmetry_space_group_name_Hall 'P 1'
_symmetry_space_group_name_H-M  'P 1'
_symmetry_Int_Tables_number     1

_symmetry_equiv_pos_as_xyz 'x,y,z'

loop_
_atom_site_label
_atom_site_type_symbol
_atom_site_fract_x
_atom_site_fract_y
_atom_site_fract_z
_atom_site_charge
Zn       Zn     0.919290000000     0.757870000000     0.132500000000     0.52615    
Zn       Zn     0.105550000000     0.741400000000     0.313240000000     0.52615    
Zn       Zn     0.419290000000     0.742130000000     0.367500000000     0.52615    
Zn       Zn     0.605550000000     0.758600000000     0.186760000000     0.52615    
Zn       Zn     0.080710000000     0.242130000000     0.867500000000     0.52615    
Zn       Zn     0.894450000000     0.258600000000     0.686760000000     0.52615    
Zn       Zn     0.580710000000     0.257870000000     0.632500000000     0.52615    
Zn       Zn     0.394450000000     0.241400000000     0.813240000000     0.52615    
Zn       Zn     0.000000000000     0.500000000000     0.000000000000     0.52615    
Zn       Zn     0.500000000000     0.000000000000     0.500000000000     0.52615    
Zn       Zn     0.000000000000     0.000000000000     0.000000000000     0.52615    
Zn       Zn     0.500000000000     0.500000000000     0.500000000000     0.52615    
H        H      0.751800000000     0.862800000000     0.366900000000    -0.0493685  
H        H      0.035900000000     0.478100000000     0.265800000000    -0.0493685  
H        H      0.615800000000     0.557200000000     0.043800000000    -0.0493685  
H        H      0.184600000000     0.986100000000     0.234000000000    -0.0493685  
H        H      0.154700000000     0.696100000000     0.927600000000    -0.0493685  
H        H      0.701100000000     0.990600000000     0.008800000000    -0.0493685  
H        H      0.251800000000     0.637200000000     0.133100000000    -0.0493685  
H        H      0.535900000000     0.021900000000     0.234200000000    -0.0493685  
H        H      0.115800000000     0.942800000000     0.456200000000    -0.0493685  
H        H      0.684600000000     0.513900000000     0.266000000000    -0.0493685  
H        H      0.654700000000     0.803900000000     0.572400000000    -0.0493685  
H        H      0.201100000000     0.509400000000     0.491200000000    -0.0493685  
H        H      0.248200000000     0.137200000000     0.633100000000    -0.0493685  
H        H      0.964100000000     0.521900000000     0.734200000000    -0.0493685  
H        H      0.384200000000     0.442800000000     0.956200000000    -0.0493685  
H        H      0.815400000000     0.013900000000     0.766000000000    -0.0493685  
H        H      0.845300000000     0.303900000000     0.072400000000    -0.0493685  
H        H      0.298900000000     0.009400000000     0.991200000000    -0.0493685  
H        H      0.748200000000     0.362800000000     0.866900000000    -0.0493685  
H        H      0.464100000000     0.978100000000     0.765800000000    -0.0493685  
H        H      0.884200000000     0.057200000000     0.543800000000    -0.0493685  
H        H      0.315400000000     0.486100000000     0.734000000000    -0.0493685  
H        H      0.345300000000     0.196100000000     0.427600000000    -0.0493685  
H        H      0.798900000000     0.490600000000     0.508800000000    -0.0493685  
C        C      0.823900000000     0.832100000000     0.329900000000     0.387196   
C        C      0.014800000000     0.519600000000     0.211600000000     0.387196   
C        C      0.710100000000     0.573200000000     0.051000000000     0.387196   
C        C      0.125000000000     0.956900000000     0.187100000000     0.387196   
C        C      0.101900000000     0.741700000000     0.970400000000     0.387196   
C        C      0.718800000000     0.929600000000     0.051000000000     0.387196   
C        C      0.323900000000     0.667900000000     0.170100000000     0.387196   
C        C      0.514800000000     0.980400000000     0.288400000000     0.387196   
C        C      0.210100000000     0.926800000000     0.449000000000     0.387196   
C        C      0.625000000000     0.543100000000     0.312900000000     0.387196   
C        C      0.601900000000     0.758300000000     0.529600000000     0.387196   
C        C      0.218800000000     0.570400000000     0.449000000000     0.387196   
C        C      0.176100000000     0.167900000000     0.670100000000     0.387196   
C        C      0.985200000000     0.480400000000     0.788400000000     0.387196   
C        C      0.289900000000     0.426800000000     0.949000000000     0.387196   
C        C      0.875000000000     0.043100000000     0.812900000000     0.387196   
C        C      0.898100000000     0.258300000000     0.029600000000     0.387196   
C        C      0.281200000000     0.070400000000     0.949000000000     0.387196   
C        C      0.676100000000     0.332100000000     0.829900000000     0.387196   
C        C      0.485200000000     0.019600000000     0.711600000000     0.387196   
C        C      0.789900000000     0.073200000000     0.551000000000     0.387196   
C        C      0.375000000000     0.456900000000     0.687100000000     0.387196   
C        C      0.398100000000     0.241700000000     0.470400000000     0.387196   
C        C      0.781200000000     0.429600000000     0.551000000000     0.387196   
O        O      0.797000000000     0.809400000000     0.245600000000    -0.300451   
O        O      0.936200000000     0.817900000000     0.368900000000    -0.300451   
O        O      0.003400000000     0.630900000000     0.219600000000    -0.300451   
O        O      0.000800000000     0.459700000000     0.139200000000    -0.300451   
O        O      0.742300000000     0.652600000000     0.110200000000    -0.300451   
O        O      0.789100000000     0.514400000000     0.001600000000    -0.300451   
O        O      0.080600000000     0.851500000000     0.195800000000    -0.300451   
O        O      0.098600000000     0.025100000000     0.124100000000    -0.300451   
O        O      0.022500000000     0.684500000000     0.023400000000    -0.300451   
O        O      0.116600000000     0.849900000000     0.969500000000    -0.300451   
O        O      0.843200000000     0.897800000000     0.059800000000    -0.300451   
O        O      0.619400000000     0.888600000000     0.091800000000    -0.300451   
O        O      0.297000000000     0.690600000000     0.254400000000    -0.300451   
O        O      0.436200000000     0.682100000000     0.131100000000    -0.300451   
O        O      0.503400000000     0.869100000000     0.280400000000    -0.300451   
O        O      0.500800000000     0.040300000000     0.360800000000    -0.300451   
O        O      0.242300000000     0.847400000000     0.389800000000    -0.300451   
O        O      0.289100000000     0.985600000000     0.498400000000    -0.300451   
O        O      0.580600000000     0.648500000000     0.304200000000    -0.300451   
O        O      0.598600000000     0.474900000000     0.375900000000    -0.300451   
O        O      0.522500000000     0.815500000000     0.476600000000    -0.300451   
O        O      0.616600000000     0.650100000000     0.530500000000    -0.300451   
O        O      0.343200000000     0.602200000000     0.440200000000    -0.300451   
O        O      0.119400000000     0.611400000000     0.408200000000    -0.300451   
O        O      0.203000000000     0.190600000000     0.754400000000    -0.300451   
O        O      0.063800000000     0.182100000000     0.631100000000    -0.300451   
O        O      0.996600000000     0.369100000000     0.780400000000    -0.300451   
O        O      0.999200000000     0.540300000000     0.860800000000    -0.300451   
O        O      0.257700000000     0.347400000000     0.889800000000    -0.300451   
O        O      0.210900000000     0.485600000000     0.998400000000    -0.300451   
O        O      0.919400000000     0.148500000000     0.804200000000    -0.300451   
O        O      0.901400000000     0.974900000000     0.875900000000    -0.300451   
O        O      0.977500000000     0.315500000000     0.976600000000    -0.300451   
O        O      0.883400000000     0.150100000000     0.030500000000    -0.300451   
O        O      0.156800000000     0.102200000000     0.940200000000    -0.300451   
O        O      0.380600000000     0.111400000000     0.908200000000    -0.300451   
O        O      0.703000000000     0.309400000000     0.745600000000    -0.300451   
O        O      0.563800000000     0.317900000000     0.868900000000    -0.300451   
O        O      0.496600000000     0.130900000000     0.719600000000    -0.300451   
O        O      0.499200000000     0.959700000000     0.639200000000    -0.300451   
O        O      0.757700000000     0.152600000000     0.610200000000    -0.300451   
O        O      0.710900000000     0.014400000000     0.501600000000    -0.300451   
O        O      0.419400000000     0.351500000000     0.695800000000    -0.300451   
O        O      0.401400000000     0.525100000000     0.624100000000    -0.300451   
O        O      0.477500000000     0.184500000000     0.523400000000    -0.300451   
O        O      0.383400000000     0.349900000000     0.469500000000    -0.300451   
O        O      0.656800000000     0.397800000000     0.559800000000    -0.300451   
O        O      0.880600000000     0.388600000000     0.591800000000    -0.300451   


