data_TESHAB_original

_audit_creation_method RASPA-1.0
_audit_creation_date 2022-1-28
_audit_author_name 'Felipe Lopes de Oliveira <felipe.lopes.oliveira@ibm.com>'

_cell_length_a    9.9781
_cell_length_b    11.3647
_cell_length_c    15.0548
_cell_angle_alpha 90.9962
_cell_angle_beta  90
_cell_angle_gamma 90
_cell_volume      1706.93

_symmetry_cell_setting          triclinic
_symmetry_space_group_name_Hall 'P 1'
_symmetry_space_group_name_H-M  'P 1'
_symmetry_Int_Tables_number     1

_symmetry_equiv_pos_as_xyz 'x,y,z'

loop_
_atom_site_label
_atom_site_type_symbol
_atom_site_fract_x
_atom_site_fract_y
_atom_site_fract_z
_atom_site_charge
Zn       Zn     0.930240000000     0.754580000000     0.132410000000     0.526255   
Zn       Zn     0.124630000000     0.741910000000     0.302790000000     0.526255   
Zn       Zn     0.430240000000     0.745420000000     0.367590000000     0.526255   
Zn       Zn     0.624630000000     0.758090000000     0.197210000000     0.526255   
Zn       Zn     0.069760000000     0.245420000000     0.867590000000     0.526255   
Zn       Zn     0.875370000000     0.258090000000     0.697210000000     0.526255   
Zn       Zn     0.569760000000     0.254580000000     0.632410000000     0.526255   
Zn       Zn     0.375370000000     0.241910000000     0.802790000000     0.526255   
Zn       Zn     0.000000000000     0.500000000000     0.000000000000     0.526255   
Zn       Zn     0.500000000000     0.000000000000     0.500000000000     0.526255   
Zn       Zn     0.000000000000     0.000000000000     0.000000000000     0.526255   
Zn       Zn     0.500000000000     0.500000000000     0.500000000000     0.526255   
H        H      0.778600000000     0.854000000000     0.366400000000    -0.0503662  
H        H      0.064500000000     0.478200000000     0.254600000000    -0.0503662  
H        H      0.630100000000     0.537800000000     0.074600000000    -0.0503662  
H        H      0.229000000000     0.963700000000     0.206300000000    -0.0503662  
H        H      0.132000000000     0.695400000000     0.918500000000    -0.0503662  
H        H      0.713500000000     0.002000000000     0.032300000000    -0.0503662  
H        H      0.278600000000     0.646000000000     0.133600000000    -0.0503662  
H        H      0.564500000000     0.021800000000     0.245400000000    -0.0503662  
H        H      0.130100000000     0.962200000000     0.425400000000    -0.0503662  
H        H      0.729000000000     0.536300000000     0.293700000000    -0.0503662  
H        H      0.632000000000     0.804600000000     0.581500000000    -0.0503662  
H        H      0.213500000000     0.498000000000     0.467700000000    -0.0503662  
H        H      0.221400000000     0.146000000000     0.633600000000    -0.0503662  
H        H      0.935500000000     0.521800000000     0.745400000000    -0.0503662  
H        H      0.369900000000     0.462200000000     0.925400000000    -0.0503662  
H        H      0.771000000000     0.036300000000     0.793700000000    -0.0503662  
H        H      0.868000000000     0.304600000000     0.081500000000    -0.0503662  
H        H      0.286500000000     0.998000000000     0.967700000000    -0.0503662  
H        H      0.721400000000     0.354000000000     0.866400000000    -0.0503662  
H        H      0.435500000000     0.978200000000     0.754600000000    -0.0503662  
H        H      0.869900000000     0.037800000000     0.574600000000    -0.0503662  
H        H      0.271000000000     0.463700000000     0.706300000000    -0.0503662  
H        H      0.368000000000     0.195400000000     0.418500000000    -0.0503662  
H        H      0.786500000000     0.502000000000     0.532300000000    -0.0503662  
C        C      0.847500000000     0.826100000000     0.328000000000     0.388474   
C        C      0.039200000000     0.520300000000     0.203200000000     0.388474   
C        C      0.720800000000     0.562700000000     0.071300000000     0.388474   
C        C      0.156300000000     0.941600000000     0.168800000000     0.388474   
C        C      0.085300000000     0.741500000000     0.961600000000     0.388474   
C        C      0.732300000000     0.935700000000     0.067800000000     0.388474   
C        C      0.347500000000     0.673900000000     0.172000000000     0.388474   
C        C      0.539200000000     0.979700000000     0.296800000000     0.388474   
C        C      0.220800000000     0.937300000000     0.428700000000     0.388474   
C        C      0.656300000000     0.558400000000     0.331200000000     0.388474   
C        C      0.585300000000     0.758500000000     0.538400000000     0.388474   
C        C      0.232300000000     0.564300000000     0.432200000000     0.388474   
C        C      0.152500000000     0.173900000000     0.672000000000     0.388474   
C        C      0.960800000000     0.479700000000     0.796800000000     0.388474   
C        C      0.279200000000     0.437300000000     0.928700000000     0.388474   
C        C      0.843700000000     0.058400000000     0.831200000000     0.388474   
C        C      0.914700000000     0.258500000000     0.038400000000     0.388474   
C        C      0.267700000000     0.064300000000     0.932200000000     0.388474   
C        C      0.652500000000     0.326100000000     0.828000000000     0.388474   
C        C      0.460800000000     0.020300000000     0.703200000000     0.388474   
C        C      0.779200000000     0.062700000000     0.571300000000     0.388474   
C        C      0.343700000000     0.441600000000     0.668800000000     0.388474   
C        C      0.414700000000     0.241500000000     0.461600000000     0.388474   
C        C      0.767700000000     0.435700000000     0.567800000000     0.388474   
O        O      0.815340000000     0.806070000000     0.247770000000    -0.300618   
O        O      0.960480000000     0.812770000000     0.361470000000    -0.300618   
O        O      0.021260000000     0.630960000000     0.213460000000    -0.300618   
O        O      0.027200000000     0.462640000000     0.133840000000    -0.300618   
O        O      0.754290000000     0.650660000000     0.120760000000    -0.300618   
O        O      0.794420000000     0.506950000000     0.019650000000    -0.300618   
O        O      0.094560000000     0.847740000000     0.188340000000    -0.300618   
O        O      0.132000000000     0.007240000000     0.106440000000    -0.300618   
O        O      0.019430000000     0.685360000000     0.020460000000    -0.300618   
O        O      0.094150000000     0.849320000000     0.955220000000    -0.300618   
O        O      0.854410000000     0.900580000000     0.069680000000    -0.300618   
O        O      0.636280000000     0.891920000000     0.107920000000    -0.300618   
O        O      0.315340000000     0.693930000000     0.252230000000    -0.300618   
O        O      0.460480000000     0.687230000000     0.138530000000    -0.300618   
O        O      0.521260000000     0.869040000000     0.286540000000    -0.300618   
O        O      0.527200000000     0.037360000000     0.366160000000    -0.300618   
O        O      0.254290000000     0.849340000000     0.379240000000    -0.300618   
O        O      0.294420000000     0.993050000000     0.480350000000    -0.300618   
O        O      0.594560000000     0.652260000000     0.311660000000    -0.300618   
O        O      0.632000000000     0.492760000000     0.393560000000    -0.300618   
O        O      0.519430000000     0.814640000000     0.479540000000    -0.300618   
O        O      0.594150000000     0.650680000000     0.544780000000    -0.300618   
O        O      0.354410000000     0.599420000000     0.430320000000    -0.300618   
O        O      0.136280000000     0.608080000000     0.392080000000    -0.300618   
O        O      0.184660000000     0.193930000000     0.752230000000    -0.300618   
O        O      0.039520000000     0.187230000000     0.638530000000    -0.300618   
O        O      0.978740000000     0.369040000000     0.786540000000    -0.300618   
O        O      0.972800000000     0.537360000000     0.866160000000    -0.300618   
O        O      0.245710000000     0.349340000000     0.879240000000    -0.300618   
O        O      0.205580000000     0.493050000000     0.980350000000    -0.300618   
O        O      0.905440000000     0.152260000000     0.811660000000    -0.300618   
O        O      0.868000000000     0.992760000000     0.893560000000    -0.300618   
O        O      0.980570000000     0.314640000000     0.979540000000    -0.300618   
O        O      0.905850000000     0.150680000000     0.044780000000    -0.300618   
O        O      0.145590000000     0.099420000000     0.930320000000    -0.300618   
O        O      0.363720000000     0.108080000000     0.892080000000    -0.300618   
O        O      0.684660000000     0.306070000000     0.747770000000    -0.300618   
O        O      0.539520000000     0.312770000000     0.861470000000    -0.300618   
O        O      0.478740000000     0.130960000000     0.713460000000    -0.300618   
O        O      0.472800000000     0.962640000000     0.633840000000    -0.300618   
O        O      0.745710000000     0.150660000000     0.620760000000    -0.300618   
O        O      0.705580000000     0.006950000000     0.519650000000    -0.300618   
O        O      0.405440000000     0.347740000000     0.688340000000    -0.300618   
O        O      0.368000000000     0.507240000000     0.606440000000    -0.300618   
O        O      0.480570000000     0.185360000000     0.520460000000    -0.300618   
O        O      0.405850000000     0.349320000000     0.455220000000    -0.300618   
O        O      0.645590000000     0.400580000000     0.569680000000    -0.300618   
O        O      0.863720000000     0.391920000000     0.607920000000    -0.300618   


