data_TEVZIE_original

_audit_creation_method RASPA-1.0
_audit_creation_date 2022-1-29
_audit_author_name 'Felipe Lopes de Oliveira <felipe.lopes.oliveira@ibm.com>'

_cell_length_a    9.8486
_cell_length_b    11.2956
_cell_length_c    14.7493
_cell_angle_alpha 91.3094
_cell_angle_beta  90
_cell_angle_gamma 90
_cell_volume      1640.37

_symmetry_cell_setting          triclinic
_symmetry_space_group_name_Hall 'P 1'
_symmetry_space_group_name_H-M  'P 1'
_symmetry_Int_Tables_number     1

_symmetry_equiv_pos_as_xyz 'x,y,z'

loop_
_atom_site_label
_atom_site_type_symbol
_atom_site_fract_x
_atom_site_fract_y
_atom_site_fract_z
_atom_site_charge
Zn       Zn     0.923320000000     0.756860000000     0.132350000000     0.526274   
Zn       Zn     0.112400000000     0.741240000000     0.308760000000     0.526274   
Zn       Zn     0.423320000000     0.743140000000     0.367650000000     0.526274   
Zn       Zn     0.612400000000     0.758760000000     0.191240000000     0.526274   
Zn       Zn     0.076680000000     0.243140000000     0.867650000000     0.526274   
Zn       Zn     0.887600000000     0.258760000000     0.691240000000     0.526274   
Zn       Zn     0.576680000000     0.256860000000     0.632350000000     0.526274   
Zn       Zn     0.387600000000     0.241240000000     0.808760000000     0.526274   
Zn       Zn     0.000000000000     0.500000000000     0.000000000000     0.526274   
Zn       Zn     0.500000000000     0.000000000000     0.500000000000     0.526274   
Zn       Zn     0.000000000000     0.000000000000     0.000000000000     0.526274   
Zn       Zn     0.500000000000     0.500000000000     0.500000000000     0.526274   
H        H      0.757600000000     0.845400000000     0.369800000000    -0.0499331  
H        H      0.055700000000     0.477500000000     0.258900000000    -0.0499331  
H        H      0.617300000000     0.553400000000     0.051600000000    -0.0499331  
H        H      0.198900000000     0.981300000000     0.226100000000    -0.0499331  
H        H      0.154200000000     0.695300000000     0.927300000000    -0.0499331  
H        H      0.707400000000     0.003700000000     0.025100000000    -0.0499331  
H        H      0.257600000000     0.654600000000     0.130200000000    -0.0499331  
H        H      0.555700000000     0.022500000000     0.241100000000    -0.0499331  
H        H      0.117300000000     0.946600000000     0.448400000000    -0.0499331  
H        H      0.698900000000     0.518700000000     0.273900000000    -0.0499331  
H        H      0.654200000000     0.804700000000     0.572700000000    -0.0499331  
H        H      0.207400000000     0.496300000000     0.474900000000    -0.0499331  
H        H      0.242400000000     0.154600000000     0.630200000000    -0.0499331  
H        H      0.944300000000     0.522500000000     0.741100000000    -0.0499331  
H        H      0.382700000000     0.446600000000     0.948400000000    -0.0499331  
H        H      0.801100000000     0.018700000000     0.773900000000    -0.0499331  
H        H      0.845800000000     0.304700000000     0.072700000000    -0.0499331  
H        H      0.292600000000     0.996300000000     0.974900000000    -0.0499331  
H        H      0.742400000000     0.345400000000     0.869800000000    -0.0499331  
H        H      0.444300000000     0.977500000000     0.758900000000    -0.0499331  
H        H      0.882700000000     0.053400000000     0.551600000000    -0.0499331  
H        H      0.301100000000     0.481300000000     0.726100000000    -0.0499331  
H        H      0.345800000000     0.195300000000     0.427300000000    -0.0499331  
H        H      0.792600000000     0.503700000000     0.525100000000    -0.0499331  
C        C      0.830400000000     0.820370000000     0.331770000000     0.388128   
C        C      0.028500000000     0.518350000000     0.206350000000     0.388128   
C        C      0.711200000000     0.571760000000     0.056060000000     0.388128   
C        C      0.136400000000     0.953380000000     0.181480000000     0.388128   
C        C      0.099300000000     0.741740000000     0.967340000000     0.388128   
C        C      0.724500000000     0.938050000000     0.062550000000     0.388128   
C        C      0.330400000000     0.679630000000     0.168230000000     0.388128   
C        C      0.528500000000     0.981650000000     0.293650000000     0.388128   
C        C      0.211200000000     0.928240000000     0.443940000000     0.388128   
C        C      0.636400000000     0.546620000000     0.318520000000     0.388128   
C        C      0.599300000000     0.758260000000     0.532660000000     0.388128   
C        C      0.224500000000     0.561950000000     0.437450000000     0.388128   
C        C      0.169600000000     0.179630000000     0.668230000000     0.388128   
C        C      0.971500000000     0.481650000000     0.793650000000     0.388128   
C        C      0.288800000000     0.428240000000     0.943940000000     0.388128   
C        C      0.863600000000     0.046620000000     0.818520000000     0.388128   
C        C      0.900700000000     0.258260000000     0.032660000000     0.388128   
C        C      0.275500000000     0.061950000000     0.937450000000     0.388128   
C        C      0.669600000000     0.320370000000     0.831770000000     0.388128   
C        C      0.471500000000     0.018350000000     0.706350000000     0.388128   
C        C      0.788800000000     0.071760000000     0.556060000000     0.388128   
C        C      0.363600000000     0.453380000000     0.681480000000     0.388128   
C        C      0.400700000000     0.241740000000     0.467340000000     0.388128   
C        C      0.775500000000     0.438050000000     0.562550000000     0.388128   
O        O      0.803870000000     0.804370000000     0.247750000000    -0.300666   
O        O      0.942880000000     0.806280000000     0.368720000000    -0.300666   
O        O      0.012480000000     0.629060000000     0.215310000000    -0.300666   
O        O      0.012430000000     0.457790000000     0.136320000000    -0.300666   
O        O      0.745340000000     0.655210000000     0.112060000000    -0.300666   
O        O      0.789770000000     0.513040000000     0.007240000000    -0.300666   
O        O      0.082820000000     0.852420000000     0.194560000000    -0.300666   
O        O      0.115560000000     0.018330000000     0.117000000000    -0.300666   
O        O      0.024520000000     0.685190000000     0.023270000000    -0.300666   
O        O      0.106950000000     0.849490000000     0.960440000000    -0.300666   
O        O      0.847350000000     0.901230000000     0.065960000000    -0.300666   
O        O      0.625650000000     0.896670000000     0.103230000000    -0.300666   
O        O      0.303870000000     0.695630000000     0.252250000000    -0.300666   
O        O      0.442880000000     0.693720000000     0.131280000000    -0.300666   
O        O      0.512480000000     0.870940000000     0.284690000000    -0.300666   
O        O      0.512430000000     0.042210000000     0.363680000000    -0.300666   
O        O      0.245340000000     0.844790000000     0.387940000000    -0.300666   
O        O      0.289770000000     0.986960000000     0.492760000000    -0.300666   
O        O      0.582820000000     0.647580000000     0.305440000000    -0.300666   
O        O      0.615560000000     0.481670000000     0.383000000000    -0.300666   
O        O      0.524520000000     0.814810000000     0.476730000000    -0.300666   
O        O      0.606950000000     0.650510000000     0.539560000000    -0.300666   
O        O      0.347350000000     0.598770000000     0.434040000000    -0.300666   
O        O      0.125650000000     0.603330000000     0.396770000000    -0.300666   
O        O      0.196130000000     0.195630000000     0.752250000000    -0.300666   
O        O      0.057120000000     0.193720000000     0.631280000000    -0.300666   
O        O      0.987520000000     0.370940000000     0.784690000000    -0.300666   
O        O      0.987570000000     0.542210000000     0.863680000000    -0.300666   
O        O      0.254660000000     0.344790000000     0.887940000000    -0.300666   
O        O      0.210230000000     0.486960000000     0.992760000000    -0.300666   
O        O      0.917180000000     0.147580000000     0.805440000000    -0.300666   
O        O      0.884440000000     0.981670000000     0.883000000000    -0.300666   
O        O      0.975480000000     0.314810000000     0.976730000000    -0.300666   
O        O      0.893050000000     0.150510000000     0.039560000000    -0.300666   
O        O      0.152650000000     0.098770000000     0.934040000000    -0.300666   
O        O      0.374350000000     0.103330000000     0.896770000000    -0.300666   
O        O      0.696130000000     0.304370000000     0.747750000000    -0.300666   
O        O      0.557120000000     0.306280000000     0.868720000000    -0.300666   
O        O      0.487520000000     0.129060000000     0.715310000000    -0.300666   
O        O      0.487570000000     0.957790000000     0.636320000000    -0.300666   
O        O      0.754660000000     0.155210000000     0.612060000000    -0.300666   
O        O      0.710230000000     0.013040000000     0.507240000000    -0.300666   
O        O      0.417180000000     0.352420000000     0.694560000000    -0.300666   
O        O      0.384440000000     0.518330000000     0.617000000000    -0.300666   
O        O      0.475480000000     0.185190000000     0.523270000000    -0.300666   
O        O      0.393050000000     0.349490000000     0.460440000000    -0.300666   
O        O      0.652650000000     0.401230000000     0.565960000000    -0.300666   
O        O      0.874350000000     0.396670000000     0.603230000000    -0.300666   


