data_TEVZOK_original

_audit_creation_method RASPA-1.0
_audit_creation_date 2022-1-30
_audit_author_name 'Felipe Lopes de Oliveira <felipe.lopes.oliveira@ibm.com>'

_cell_length_a    9.6682
_cell_length_b    11.2151
_cell_length_c    14.4362
_cell_angle_alpha 91.2589
_cell_angle_beta  90
_cell_angle_gamma 90
_cell_volume      1564.94

_symmetry_cell_setting          triclinic
_symmetry_space_group_name_Hall 'P 1'
_symmetry_space_group_name_H-M  'P 1'
_symmetry_Int_Tables_number     1

_symmetry_equiv_pos_as_xyz 'x,y,z'

loop_
_atom_site_label
_atom_site_type_symbol
_atom_site_fract_x
_atom_site_fract_y
_atom_site_fract_z
_atom_site_charge
Zn       Zn     0.917150000000     0.756580000000     0.130990000000     0.526399   
Zn       Zn     0.099610000000     0.739330000000     0.315410000000     0.526399   
Zn       Zn     0.417150000000     0.743420000000     0.369010000000     0.526399   
Zn       Zn     0.599610000000     0.760670000000     0.184590000000     0.526399   
Zn       Zn     0.082850000000     0.243420000000     0.869010000000     0.526399   
Zn       Zn     0.900390000000     0.260670000000     0.684590000000     0.526399   
Zn       Zn     0.582850000000     0.256580000000     0.630990000000     0.526399   
Zn       Zn     0.400390000000     0.239330000000     0.815410000000     0.526399   
Zn       Zn     0.000000000000     0.500000000000     0.000000000000     0.526399   
Zn       Zn     0.500000000000     0.000000000000     0.500000000000     0.526399   
Zn       Zn     0.000000000000     0.000000000000     0.000000000000     0.526399   
Zn       Zn     0.500000000000     0.500000000000     0.500000000000     0.526399   
H        H      0.743700000000     0.867300000000     0.364200000000    -0.0493297  
H        H      0.019400000000     0.471700000000     0.268200000000    -0.0493297  
H        H      0.610600000000     0.563600000000     0.033900000000    -0.0493297  
H        H      0.184200000000     0.984700000000     0.237300000000    -0.0493297  
H        H      0.180800000000     0.696600000000     0.938600000000    -0.0493297  
H        H      0.696500000000     0.993900000000     0.005900000000    -0.0493297  
H        H      0.243700000000     0.632700000000     0.135800000000    -0.0493297  
H        H      0.519400000000     0.028300000000     0.231800000000    -0.0493297  
H        H      0.110600000000     0.936400000000     0.466100000000    -0.0493297  
H        H      0.684200000000     0.515300000000     0.262700000000    -0.0493297  
H        H      0.680800000000     0.803400000000     0.561400000000    -0.0493297  
H        H      0.196500000000     0.506100000000     0.494100000000    -0.0493297  
H        H      0.256300000000     0.132700000000     0.635800000000    -0.0493297  
H        H      0.980600000000     0.528300000000     0.731800000000    -0.0493297  
H        H      0.389400000000     0.436400000000     0.966100000000    -0.0493297  
H        H      0.815800000000     0.015300000000     0.762700000000    -0.0493297  
H        H      0.819200000000     0.303400000000     0.061400000000    -0.0493297  
H        H      0.303500000000     0.006100000000     0.994100000000    -0.0493297  
H        H      0.756300000000     0.367300000000     0.864200000000    -0.0493297  
H        H      0.480600000000     0.971700000000     0.768200000000    -0.0493297  
H        H      0.889400000000     0.063600000000     0.533900000000    -0.0493297  
H        H      0.315800000000     0.484700000000     0.737300000000    -0.0493297  
H        H      0.319200000000     0.196600000000     0.438600000000    -0.0493297  
H        H      0.803500000000     0.493900000000     0.505900000000    -0.0493297  
C        C      0.817700000000     0.835700000000     0.328000000000     0.387562   
C        C      0.002300000000     0.514600000000     0.213400000000     0.387562   
C        C      0.706200000000     0.578700000000     0.043600000000     0.387562   
C        C      0.125900000000     0.956000000000     0.188800000000     0.387562   
C        C      0.115500000000     0.741800000000     0.973800000000     0.387562   
C        C      0.713100000000     0.931300000000     0.047700000000     0.387562   
C        C      0.317700000000     0.664300000000     0.172000000000     0.387562   
C        C      0.502300000000     0.985400000000     0.286600000000     0.387562   
C        C      0.206200000000     0.921300000000     0.456400000000     0.387562   
C        C      0.625900000000     0.544000000000     0.311200000000     0.387562   
C        C      0.615500000000     0.758200000000     0.526200000000     0.387562   
C        C      0.213100000000     0.568700000000     0.452300000000     0.387562   
C        C      0.182300000000     0.164300000000     0.672000000000     0.387562   
C        C      0.997700000000     0.485400000000     0.786600000000     0.387562   
C        C      0.293800000000     0.421300000000     0.956400000000     0.387562   
C        C      0.874100000000     0.044000000000     0.811200000000     0.387562   
C        C      0.884500000000     0.258200000000     0.026200000000     0.387562   
C        C      0.286900000000     0.068700000000     0.952300000000     0.387562   
C        C      0.682300000000     0.335700000000     0.828000000000     0.387562   
C        C      0.497700000000     0.014600000000     0.713400000000     0.387562   
C        C      0.793800000000     0.078700000000     0.543600000000     0.387562   
C        C      0.374100000000     0.456000000000     0.688800000000     0.387562   
C        C      0.384500000000     0.241800000000     0.473800000000     0.387562   
C        C      0.786900000000     0.431300000000     0.547700000000     0.387562   
O        O      0.792700000000     0.814210000000     0.242810000000    -0.300716   
O        O      0.929500000000     0.819420000000     0.368920000000    -0.300716   
O        O      0.994900000000     0.627720000000     0.221920000000    -0.300716   
O        O      0.989500000000     0.455060000000     0.140960000000    -0.300716   
O        O      0.737300000000     0.652930000000     0.108430000000    -0.300716   
O        O      0.788000000000     0.524490000000     0.992190000000    -0.300716   
O        O      0.079700000000     0.849330000000     0.195930000000    -0.300716   
O        O      0.102400000000     0.024750000000     0.125550000000    -0.300716   
O        O      0.030800000000     0.683390000000     0.025390000000    -0.300716   
O        O      0.118700000000     0.850550000000     0.966550000000    -0.300716   
O        O      0.839100000000     0.897540000000     0.057140000000    -0.300716   
O        O      0.611100000000     0.889860000000     0.087860000000    -0.300716   
O        O      0.292700000000     0.685790000000     0.257190000000    -0.300716   
O        O      0.429500000000     0.680580000000     0.131080000000    -0.300716   
O        O      0.494900000000     0.872280000000     0.278080000000    -0.300716   
O        O      0.489500000000     0.044940000000     0.359040000000    -0.300716   
O        O      0.237300000000     0.847070000000     0.391570000000    -0.300716   
O        O      0.288000000000     0.975510000000     0.507810000000    -0.300716   
O        O      0.579700000000     0.650670000000     0.304070000000    -0.300716   
O        O      0.602400000000     0.475250000000     0.374450000000    -0.300716   
O        O      0.530800000000     0.816610000000     0.474610000000    -0.300716   
O        O      0.618700000000     0.649450000000     0.533450000000    -0.300716   
O        O      0.339100000000     0.602460000000     0.442860000000    -0.300716   
O        O      0.111100000000     0.610140000000     0.412140000000    -0.300716   
O        O      0.207300000000     0.185790000000     0.757190000000    -0.300716   
O        O      0.070500000000     0.180580000000     0.631080000000    -0.300716   
O        O      0.005100000000     0.372280000000     0.778080000000    -0.300716   
O        O      0.010500000000     0.544940000000     0.859040000000    -0.300716   
O        O      0.262700000000     0.347070000000     0.891570000000    -0.300716   
O        O      0.212000000000     0.475510000000     0.007810000000    -0.300716   
O        O      0.920300000000     0.150670000000     0.804070000000    -0.300716   
O        O      0.897600000000     0.975250000000     0.874450000000    -0.300716   
O        O      0.969200000000     0.316610000000     0.974610000000    -0.300716   
O        O      0.881300000000     0.149450000000     0.033450000000    -0.300716   
O        O      0.160900000000     0.102460000000     0.942860000000    -0.300716   
O        O      0.388900000000     0.110140000000     0.912140000000    -0.300716   
O        O      0.707300000000     0.314210000000     0.742810000000    -0.300716   
O        O      0.570500000000     0.319420000000     0.868920000000    -0.300716   
O        O      0.505100000000     0.127720000000     0.721920000000    -0.300716   
O        O      0.510500000000     0.955060000000     0.640960000000    -0.300716   
O        O      0.762700000000     0.152930000000     0.608430000000    -0.300716   
O        O      0.712000000000     0.024490000000     0.492190000000    -0.300716   
O        O      0.420300000000     0.349330000000     0.695930000000    -0.300716   
O        O      0.397600000000     0.524750000000     0.625550000000    -0.300716   
O        O      0.469200000000     0.183390000000     0.525390000000    -0.300716   
O        O      0.381300000000     0.350550000000     0.466550000000    -0.300716   
O        O      0.660900000000     0.397540000000     0.557140000000    -0.300716   
O        O      0.888900000000     0.389860000000     0.587860000000    -0.300716   


