data_TEVZEA_original

_audit_creation_method RASPA-1.0
_audit_creation_date 2022-1-30
_audit_author_name 'Felipe Lopes de Oliveira <felipe.lopes.oliveira@ibm.com>'

_cell_length_a    9.7505
_cell_length_b    11.2177
_cell_length_c    14.3736
_cell_angle_alpha 91.2891
_cell_angle_beta  90
_cell_angle_gamma 90
_cell_volume      1571.76

_symmetry_cell_setting          triclinic
_symmetry_space_group_name_Hall 'P 1'
_symmetry_space_group_name_H-M  'P 1'
_symmetry_Int_Tables_number     1

_symmetry_equiv_pos_as_xyz 'x,y,z'

loop_
_atom_site_label
_atom_site_type_symbol
_atom_site_fract_x
_atom_site_fract_y
_atom_site_fract_z
_atom_site_charge
Zn       Zn     0.918950000000     0.756720000000     0.131860000000     0.52694    
Zn       Zn     0.103220000000     0.740200000000     0.314800000000     0.52694    
Zn       Zn     0.418950000000     0.743280000000     0.368140000000     0.52694    
Zn       Zn     0.603220000000     0.759800000000     0.185200000000     0.52694    
Zn       Zn     0.081050000000     0.243280000000     0.868140000000     0.52694    
Zn       Zn     0.896780000000     0.259800000000     0.685200000000     0.52694    
Zn       Zn     0.581050000000     0.256720000000     0.631860000000     0.52694    
Zn       Zn     0.396780000000     0.240200000000     0.814800000000     0.52694    
Zn       Zn     0.000000000000     0.500000000000     0.000000000000     0.52694    
Zn       Zn     0.500000000000     0.000000000000     0.500000000000     0.52694    
Zn       Zn     0.000000000000     0.000000000000     0.000000000000     0.52694    
Zn       Zn     0.500000000000     0.500000000000     0.500000000000     0.52694    
H        H      0.747900000000     0.861600000000     0.368600000000    -0.0504662  
H        H      0.022500000000     0.473900000000     0.268700000000    -0.0504662  
H        H      0.613100000000     0.561400000000     0.035400000000    -0.0504662  
H        H      0.174400000000     0.990600000000     0.241000000000    -0.0504662  
H        H      0.172100000000     0.696700000000     0.934400000000    -0.0504662  
H        H      0.700200000000     0.985800000000     0.999900000000    -0.0504662  
H        H      0.247900000000     0.638400000000     0.131400000000    -0.0504662  
H        H      0.522500000000     0.026100000000     0.231300000000    -0.0504662  
H        H      0.113100000000     0.938600000000     0.464600000000    -0.0504662  
H        H      0.674400000000     0.509400000000     0.259000000000    -0.0504662  
H        H      0.672100000000     0.803300000000     0.565600000000    -0.0504662  
H        H      0.200200000000     0.514200000000     0.500100000000    -0.0504662  
H        H      0.252100000000     0.138400000000     0.631400000000    -0.0504662  
H        H      0.977500000000     0.526100000000     0.731300000000    -0.0504662  
H        H      0.386900000000     0.438600000000     0.964600000000    -0.0504662  
H        H      0.825600000000     0.009400000000     0.759000000000    -0.0504662  
H        H      0.827900000000     0.303300000000     0.065600000000    -0.0504662  
H        H      0.299800000000     0.014200000000     0.000100000000    -0.0504662  
H        H      0.752100000000     0.361600000000     0.868600000000    -0.0504662  
H        H      0.477500000000     0.973900000000     0.768700000000    -0.0504662  
H        H      0.886900000000     0.061400000000     0.535400000000    -0.0504662  
H        H      0.325600000000     0.490600000000     0.741000000000    -0.0504662  
H        H      0.327900000000     0.196700000000     0.434400000000    -0.0504662  
H        H      0.799800000000     0.485800000000     0.499900000000    -0.0504662  
C        C      0.821000000000     0.831300000000     0.331300000000     0.39106    
C        C      0.005500000000     0.516100000000     0.213300000000     0.39106    
C        C      0.707900000000     0.576800000000     0.044700000000     0.39106    
C        C      0.119600000000     0.960000000000     0.191300000000     0.39106    
C        C      0.112600000000     0.742600000000     0.973300000000     0.39106    
C        C      0.716900000000     0.926800000000     0.044900000000     0.39106    
C        C      0.321000000000     0.668700000000     0.168700000000     0.39106    
C        C      0.505500000000     0.983900000000     0.286700000000     0.39106    
C        C      0.207900000000     0.923200000000     0.455300000000     0.39106    
C        C      0.619600000000     0.540000000000     0.308700000000     0.39106    
C        C      0.612600000000     0.757400000000     0.526700000000     0.39106    
C        C      0.216900000000     0.573200000000     0.455100000000     0.39106    
C        C      0.179000000000     0.168700000000     0.668700000000     0.39106    
C        C      0.994500000000     0.483900000000     0.786700000000     0.39106    
C        C      0.292100000000     0.423200000000     0.955300000000     0.39106    
C        C      0.880400000000     0.040000000000     0.808700000000     0.39106    
C        C      0.887400000000     0.257400000000     0.026700000000     0.39106    
C        C      0.283100000000     0.073200000000     0.955100000000     0.39106    
C        C      0.679000000000     0.331300000000     0.831300000000     0.39106    
C        C      0.494500000000     0.016100000000     0.713300000000     0.39106    
C        C      0.792100000000     0.076800000000     0.544700000000     0.39106    
C        C      0.380400000000     0.460000000000     0.691300000000     0.39106    
C        C      0.387400000000     0.242600000000     0.473300000000     0.39106    
C        C      0.783100000000     0.426800000000     0.544900000000     0.39106    
O        O      0.795000000000     0.812310000000     0.244910000000    -0.302032   
O        O      0.931200000000     0.814300000000     0.371000000000    -0.302032   
O        O      0.000500000000     0.628560000000     0.220960000000    -0.302032   
O        O      0.990600000000     0.455790000000     0.141690000000    -0.302032   
O        O      0.740600000000     0.652800000000     0.109000000000    -0.302032   
O        O      0.789900000000     0.521990000000     0.993890000000    -0.302032   
O        O      0.079500000000     0.852060000000     0.196860000000    -0.302032   
O        O      0.093900000000     0.028390000000     0.127590000000    -0.302032   
O        O      0.028700000000     0.684950000000     0.024550000000    -0.302032   
O        O      0.123200000000     0.851460000000     0.969860000000    -0.302032   
O        O      0.841300000000     0.896020000000     0.056720000000    -0.302032   
O        O      0.615000000000     0.887580000000     0.086180000000    -0.302032   
O        O      0.295000000000     0.687690000000     0.255090000000    -0.302032   
O        O      0.431200000000     0.685700000000     0.129000000000    -0.302032   
O        O      0.500500000000     0.871440000000     0.279040000000    -0.302032   
O        O      0.490600000000     0.044210000000     0.358310000000    -0.302032   
O        O      0.240600000000     0.847200000000     0.391000000000    -0.302032   
O        O      0.289900000000     0.978010000000     0.506110000000    -0.302032   
O        O      0.579500000000     0.647940000000     0.303140000000    -0.302032   
O        O      0.593900000000     0.471610000000     0.372410000000    -0.302032   
O        O      0.528700000000     0.815050000000     0.475450000000    -0.302032   
O        O      0.623200000000     0.648540000000     0.530140000000    -0.302032   
O        O      0.341300000000     0.603980000000     0.443280000000    -0.302032   
O        O      0.115000000000     0.612420000000     0.413820000000    -0.302032   
O        O      0.205000000000     0.187690000000     0.755090000000    -0.302032   
O        O      0.068800000000     0.185700000000     0.629000000000    -0.302032   
O        O      0.999500000000     0.371440000000     0.779040000000    -0.302032   
O        O      0.009400000000     0.544210000000     0.858310000000    -0.302032   
O        O      0.259400000000     0.347200000000     0.891000000000    -0.302032   
O        O      0.210100000000     0.478010000000     0.006110000000    -0.302032   
O        O      0.920500000000     0.147940000000     0.803140000000    -0.302032   
O        O      0.906100000000     0.971610000000     0.872410000000    -0.302032   
O        O      0.971300000000     0.315050000000     0.975450000000    -0.302032   
O        O      0.876800000000     0.148540000000     0.030140000000    -0.302032   
O        O      0.158700000000     0.103980000000     0.943280000000    -0.302032   
O        O      0.385000000000     0.112420000000     0.913820000000    -0.302032   
O        O      0.705000000000     0.312310000000     0.744910000000    -0.302032   
O        O      0.568800000000     0.314300000000     0.871000000000    -0.302032   
O        O      0.499500000000     0.128560000000     0.720960000000    -0.302032   
O        O      0.509400000000     0.955790000000     0.641690000000    -0.302032   
O        O      0.759400000000     0.152800000000     0.609000000000    -0.302032   
O        O      0.710100000000     0.021990000000     0.493890000000    -0.302032   
O        O      0.420500000000     0.352060000000     0.696860000000    -0.302032   
O        O      0.406100000000     0.528390000000     0.627590000000    -0.302032   
O        O      0.471300000000     0.184950000000     0.524550000000    -0.302032   
O        O      0.376800000000     0.351460000000     0.469860000000    -0.302032   
O        O      0.658700000000     0.396020000000     0.556720000000    -0.302032   
O        O      0.885000000000     0.387580000000     0.586180000000    -0.302032   


