data_TIRLIQ_original

_audit_creation_method RASPA-1.0
_audit_creation_date 2022-1-29
_audit_author_name 'Felipe Lopes de Oliveira <felipe.lopes.oliveira@ibm.com>'

_cell_length_a    11.805
_cell_length_b    17.142
_cell_length_c    21.544
_cell_angle_alpha 90
_cell_angle_beta  90
_cell_angle_gamma 106.441
_cell_volume      4181.41

_symmetry_cell_setting          triclinic
_symmetry_space_group_name_Hall 'P 1'
_symmetry_space_group_name_H-M  'P 1'
_symmetry_Int_Tables_number     1

_symmetry_equiv_pos_as_xyz 'x,y,z'

loop_
_atom_site_label
_atom_site_type_symbol
_atom_site_fract_x
_atom_site_fract_y
_atom_site_fract_z
_atom_site_charge
Zn       Zn     0.823240000000     0.727250000000     0.572060000000     0.475835   
Zn       Zn     0.640240000000     0.828520000000     0.620400000000     0.475835   
Zn       Zn     0.064870000000     0.365680000000     0.532520000000     0.475835   
Zn       Zn     0.676760000000     0.272750000000     0.072060000000     0.475835   
Zn       Zn     0.859760000000     0.171480000000     0.120400000000     0.475835   
Zn       Zn     0.435130000000     0.634320000000     0.032520000000     0.475835   
Zn       Zn     0.176760000000     0.272750000000     0.427940000000     0.475835   
Zn       Zn     0.359760000000     0.171480000000     0.379600000000     0.475835   
Zn       Zn     0.935130000000     0.634320000000     0.467480000000     0.475835   
Zn       Zn     0.323240000000     0.727250000000     0.927940000000     0.475835   
Zn       Zn     0.140240000000     0.828520000000     0.879600000000     0.475835   
Zn       Zn     0.564870000000     0.365680000000     0.967480000000     0.475835   
H        H      0.409100000000     0.801600000000     0.679800000000     0.0473539  
H        H      0.283800000000     0.872100000000     0.717700000000     0.0473539  
H        H      0.332300000000     0.005700000000     0.711100000000     0.0473539  
H        H      0.503700000000     0.075500000000     0.655300000000     0.0473539  
H        H      0.626600000000     0.995700000000     0.617400000000     0.0473539  
H        H      0.099000000000     0.367600000000     0.670500000000     0.0473539  
H        H      0.036600000000     0.415500000000     0.756900000000     0.0473539  
H        H      0.897400000000     0.486300000000     0.749100000000     0.0473539  
H        H      0.830300000000     0.510500000000     0.652200000000     0.0473539  
H        H      0.893600000000     0.454300000000     0.567800000000     0.0473539  
H        H      0.108300000000     0.927700000000     0.584100000000     0.0473539  
H        H      0.265700000000     0.037900000000     0.563300000000     0.0473539  
H        H      0.238000000000     0.164900000000     0.553100000000     0.0473539  
H        H      0.890000000000     0.068000000000     0.582600000000     0.0473539  
H        H      0.574100000000     0.515500000000     0.621200000000     0.0473539  
H        H      0.405700000000     0.408700000000     0.637300000000     0.0473539  
H        H      0.344800000000     0.308300000000     0.563000000000     0.0473539  
H        H      0.629400000000     0.413600000000     0.460900000000     0.0473539  
H        H      0.193500000000     0.572100000000     0.584800000000     0.0473539  
H        H      0.328500000000     0.560900000000     0.660800000000     0.0473539  
H        H      0.331100000000     0.624600000000     0.755000000000     0.0473539  
H        H      0.083100000000     0.724900000000     0.695600000000     0.0473539  
H        H      0.090900000000     0.198400000000     0.179800000000     0.0473539  
H        H      0.216200000000     0.127900000000     0.217700000000     0.0473539  
H        H      0.167700000000     0.994300000000     0.211100000000     0.0473539  
H        H      0.996300000000     0.924500000000     0.155300000000     0.0473539  
H        H      0.873400000000     0.004300000000     0.117400000000     0.0473539  
H        H      0.401000000000     0.632400000000     0.170500000000     0.0473539  
H        H      0.463400000000     0.584500000000     0.256900000000     0.0473539  
H        H      0.602600000000     0.513700000000     0.249100000000     0.0473539  
H        H      0.669700000000     0.489500000000     0.152200000000     0.0473539  
H        H      0.606400000000     0.545700000000     0.067800000000     0.0473539  
H        H      0.391700000000     0.072300000000     0.084100000000     0.0473539  
H        H      0.234300000000     0.962100000000     0.063300000000     0.0473539  
H        H      0.262000000000     0.835100000000     0.053100000000     0.0473539  
H        H      0.610000000000     0.932000000000     0.082600000000     0.0473539  
H        H      0.925900000000     0.484500000000     0.121200000000     0.0473539  
H        H      0.094300000000     0.591300000000     0.137300000000     0.0473539  
H        H      0.155200000000     0.691700000000     0.063000000000     0.0473539  
H        H      0.870600000000     0.586400000000     0.960900000000     0.0473539  
H        H      0.306500000000     0.427900000000     0.084800000000     0.0473539  
H        H      0.171500000000     0.439100000000     0.160800000000     0.0473539  
H        H      0.168900000000     0.375400000000     0.255000000000     0.0473539  
H        H      0.416900000000     0.275100000000     0.195600000000     0.0473539  
H        H      0.590900000000     0.198400000000     0.320200000000     0.0473539  
H        H      0.716200000000     0.127900000000     0.282300000000     0.0473539  
H        H      0.667700000000     0.994300000000     0.288900000000     0.0473539  
H        H      0.496300000000     0.924500000000     0.344700000000     0.0473539  
H        H      0.373400000000     0.004300000000     0.382600000000     0.0473539  
H        H      0.901000000000     0.632400000000     0.329500000000     0.0473539  
H        H      0.963400000000     0.584500000000     0.243100000000     0.0473539  
H        H      0.102600000000     0.513700000000     0.250900000000     0.0473539  
H        H      0.169700000000     0.489500000000     0.347800000000     0.0473539  
H        H      0.106400000000     0.545700000000     0.432200000000     0.0473539  
H        H      0.891700000000     0.072300000000     0.415900000000     0.0473539  
H        H      0.734300000000     0.962100000000     0.436700000000     0.0473539  
H        H      0.762000000000     0.835100000000     0.446900000000     0.0473539  
H        H      0.110000000000     0.932000000000     0.417400000000     0.0473539  
H        H      0.425900000000     0.484500000000     0.378800000000     0.0473539  
H        H      0.594300000000     0.591300000000     0.362700000000     0.0473539  
H        H      0.655200000000     0.691700000000     0.437000000000     0.0473539  
H        H      0.370600000000     0.586400000000     0.539100000000     0.0473539  
H        H      0.806500000000     0.427900000000     0.415200000000     0.0473539  
H        H      0.671500000000     0.439100000000     0.339200000000     0.0473539  
H        H      0.668900000000     0.375400000000     0.245000000000     0.0473539  
H        H      0.916900000000     0.275100000000     0.304400000000     0.0473539  
H        H      0.909100000000     0.801600000000     0.820200000000     0.0473539  
H        H      0.783800000000     0.872100000000     0.782300000000     0.0473539  
H        H      0.832300000000     0.005700000000     0.788900000000     0.0473539  
H        H      0.003700000000     0.075500000000     0.844700000000     0.0473539  
H        H      0.126600000000     0.995700000000     0.882600000000     0.0473539  
H        H      0.599000000000     0.367600000000     0.829500000000     0.0473539  
H        H      0.536600000000     0.415500000000     0.743100000000     0.0473539  
H        H      0.397400000000     0.486300000000     0.750900000000     0.0473539  
H        H      0.330300000000     0.510500000000     0.847800000000     0.0473539  
H        H      0.393600000000     0.454300000000     0.932200000000     0.0473539  
H        H      0.608300000000     0.927700000000     0.915900000000     0.0473539  
H        H      0.765700000000     0.037900000000     0.936700000000     0.0473539  
H        H      0.738000000000     0.164900000000     0.946900000000     0.0473539  
H        H      0.390000000000     0.068000000000     0.917400000000     0.0473539  
H        H      0.074100000000     0.515500000000     0.878800000000     0.0473539  
H        H      0.905700000000     0.408700000000     0.862700000000     0.0473539  
H        H      0.844800000000     0.308300000000     0.937000000000     0.0473539  
H        H      0.129400000000     0.413600000000     0.039100000000     0.0473539  
H        H      0.693500000000     0.572100000000     0.915200000000     0.0473539  
H        H      0.828500000000     0.560900000000     0.839200000000     0.0473539  
H        H      0.831100000000     0.624600000000     0.745000000000     0.0473539  
H        H      0.583100000000     0.724900000000     0.804400000000     0.0473539  
C        C      0.431200000000     0.857900000000     0.675700000000     0.0415532  
C        C      0.354300000000     0.900300000000     0.698700000000     0.0415532  
C        C      0.380900000000     0.977400000000     0.693700000000     0.0415532  
C        C      0.484000000000     0.019600000000     0.661800000000     0.0415532  
C        C      0.558100000000     0.970400000000     0.639300000000     0.0415532  
C        C      0.042700000000     0.395800000000     0.666700000000     0.0415532  
C        C      0.006700000000     0.424300000000     0.718400000000     0.0415532  
C        C      0.924900000000     0.466600000000     0.713600000000     0.0415532  
C        C      0.883600000000     0.480100000000     0.656700000000     0.0415532  
C        C      0.923600000000     0.447200000000     0.606700000000     0.0415532  
C        C      0.882200000000     0.911800000000     0.592400000000     0.0415532  
C        C      0.983800000000     0.986500000000     0.584100000000     0.0415532  
C        C      0.096300000000     0.978700000000     0.579200000000     0.0415532  
C        C      0.190400000000     0.044300000000     0.567100000000     0.0415532  
C        C      0.173800000000     0.119900000000     0.560600000000     0.0415532  
C        C      0.059600000000     0.129300000000     0.565200000000     0.0415532  
C        C      0.965500000000     0.062200000000     0.578000000000     0.0415532  
C        C      0.039700000000     0.211300000000     0.555800000000     0.0415532  
C        C      0.722800000000     0.547300000000     0.526100000000     0.0415532  
C        C      0.619400000000     0.477000000000     0.538800000000     0.0415532  
C        C      0.551500000000     0.474300000000     0.591800000000     0.0415532  
C        C      0.449800000000     0.410500000000     0.601300000000     0.0415532  
C        C      0.414300000000     0.349900000000     0.557400000000     0.0415532  
C        C      0.481400000000     0.351200000000     0.505700000000     0.0415532  
C        C      0.584000000000     0.413800000000     0.496100000000     0.0415532  
C        C      0.444700000000     0.286900000000     0.456600000000     0.0415532  
C        C      0.043500000000     0.662200000000     0.582900000000     0.0415532  
C        C      0.127000000000     0.651700000000     0.633100000000     0.0415532  
C        C      0.198600000000     0.600300000000     0.622100000000     0.0415532  
C        C      0.277500000000     0.592500000000     0.667900000000     0.0415532  
C        C      0.279900000000     0.631700000000     0.724100000000     0.0415532  
C        C      0.207200000000     0.681600000000     0.735600000000     0.0415532  
C        C      0.131500000000     0.691200000000     0.689000000000     0.0415532  
C        C      0.213500000000     0.724000000000     0.796200000000     0.0415532  
C        C      0.068800000000     0.142100000000     0.175700000000     0.0415532  
C        C      0.145700000000     0.099700000000     0.198700000000     0.0415532  
C        C      0.119100000000     0.022600000000     0.193700000000     0.0415532  
C        C      0.016000000000     0.980400000000     0.161800000000     0.0415532  
C        C      0.941900000000     0.029600000000     0.139300000000     0.0415532  
C        C      0.457300000000     0.604200000000     0.166700000000     0.0415532  
C        C      0.493300000000     0.575700000000     0.218400000000     0.0415532  
C        C      0.575100000000     0.533400000000     0.213600000000     0.0415532  
C        C      0.616400000000     0.519900000000     0.156700000000     0.0415532  
C        C      0.576400000000     0.552800000000     0.106700000000     0.0415532  
C        C      0.617800000000     0.088200000000     0.092400000000     0.0415532  
C        C      0.516200000000     0.013500000000     0.084100000000     0.0415532  
C        C      0.403700000000     0.021300000000     0.079200000000     0.0415532  
C        C      0.309600000000     0.955700000000     0.067100000000     0.0415532  
C        C      0.326200000000     0.880100000000     0.060600000000     0.0415532  
C        C      0.440400000000     0.870700000000     0.065200000000     0.0415532  
C        C      0.534500000000     0.937800000000     0.078000000000     0.0415532  
C        C      0.460300000000     0.788700000000     0.055800000000     0.0415532  
C        C      0.777200000000     0.452700000000     0.026100000000     0.0415532  
C        C      0.880600000000     0.523000000000     0.038800000000     0.0415532  
C        C      0.948500000000     0.525700000000     0.091800000000     0.0415532  
C        C      0.050200000000     0.589500000000     0.101300000000     0.0415532  
C        C      0.085700000000     0.650100000000     0.057400000000     0.0415532  
C        C      0.018600000000     0.648800000000     0.005700000000     0.0415532  
C        C      0.916000000000     0.586200000000     0.996100000000     0.0415532  
C        C      0.055300000000     0.713100000000     0.956600000000     0.0415532  
C        C      0.456500000000     0.337800000000     0.082900000000     0.0415532  
C        C      0.373000000000     0.348300000000     0.133100000000     0.0415532  
C        C      0.301400000000     0.399700000000     0.122100000000     0.0415532  
C        C      0.222500000000     0.407500000000     0.167900000000     0.0415532  
C        C      0.220100000000     0.368300000000     0.224100000000     0.0415532  
C        C      0.292800000000     0.318400000000     0.235600000000     0.0415532  
C        C      0.368500000000     0.308800000000     0.189000000000     0.0415532  
C        C      0.286500000000     0.276000000000     0.296200000000     0.0415532  
C        C      0.568800000000     0.142100000000     0.324300000000     0.0415532  
C        C      0.645700000000     0.099700000000     0.301300000000     0.0415532  
C        C      0.619100000000     0.022600000000     0.306300000000     0.0415532  
C        C      0.516000000000     0.980400000000     0.338200000000     0.0415532  
C        C      0.441900000000     0.029600000000     0.360700000000     0.0415532  
C        C      0.957300000000     0.604200000000     0.333300000000     0.0415532  
C        C      0.993300000000     0.575700000000     0.281600000000     0.0415532  
C        C      0.075100000000     0.533400000000     0.286400000000     0.0415532  
C        C      0.116400000000     0.519900000000     0.343300000000     0.0415532  
C        C      0.076400000000     0.552800000000     0.393300000000     0.0415532  
C        C      0.117800000000     0.088200000000     0.407600000000     0.0415532  
C        C      0.016200000000     0.013500000000     0.415900000000     0.0415532  
C        C      0.903700000000     0.021300000000     0.420800000000     0.0415532  
C        C      0.809600000000     0.955700000000     0.432900000000     0.0415532  
C        C      0.826200000000     0.880100000000     0.439400000000     0.0415532  
C        C      0.940400000000     0.870700000000     0.434800000000     0.0415532  
C        C      0.034500000000     0.937800000000     0.422000000000     0.0415532  
C        C      0.960300000000     0.788700000000     0.444200000000     0.0415532  
C        C      0.277200000000     0.452700000000     0.473900000000     0.0415532  
C        C      0.380600000000     0.523000000000     0.461200000000     0.0415532  
C        C      0.448500000000     0.525700000000     0.408200000000     0.0415532  
C        C      0.550200000000     0.589500000000     0.398700000000     0.0415532  
C        C      0.585700000000     0.650100000000     0.442600000000     0.0415532  
C        C      0.518600000000     0.648800000000     0.494300000000     0.0415532  
C        C      0.416000000000     0.586200000000     0.503900000000     0.0415532  
C        C      0.555300000000     0.713100000000     0.543400000000     0.0415532  
C        C      0.956500000000     0.337800000000     0.417100000000     0.0415532  
C        C      0.873000000000     0.348300000000     0.366900000000     0.0415532  
C        C      0.801400000000     0.399700000000     0.377900000000     0.0415532  
C        C      0.722500000000     0.407500000000     0.332100000000     0.0415532  
C        C      0.720100000000     0.368300000000     0.275900000000     0.0415532  
C        C      0.792800000000     0.318400000000     0.264400000000     0.0415532  
C        C      0.868500000000     0.308800000000     0.311000000000     0.0415532  
C        C      0.786500000000     0.276000000000     0.203800000000     0.0415532  
C        C      0.931200000000     0.857900000000     0.824300000000     0.0415532  
C        C      0.854300000000     0.900300000000     0.801300000000     0.0415532  
C        C      0.880900000000     0.977400000000     0.806300000000     0.0415532  
C        C      0.984000000000     0.019600000000     0.838200000000     0.0415532  
C        C      0.058100000000     0.970400000000     0.860700000000     0.0415532  
C        C      0.542700000000     0.395800000000     0.833300000000     0.0415532  
C        C      0.506700000000     0.424300000000     0.781600000000     0.0415532  
C        C      0.424900000000     0.466600000000     0.786400000000     0.0415532  
C        C      0.383600000000     0.480100000000     0.843300000000     0.0415532  
C        C      0.423600000000     0.447200000000     0.893300000000     0.0415532  
C        C      0.382200000000     0.911800000000     0.907600000000     0.0415532  
C        C      0.483800000000     0.986500000000     0.915900000000     0.0415532  
C        C      0.596300000000     0.978700000000     0.920800000000     0.0415532  
C        C      0.690400000000     0.044300000000     0.932900000000     0.0415532  
C        C      0.673800000000     0.119900000000     0.939400000000     0.0415532  
C        C      0.559600000000     0.129300000000     0.934800000000     0.0415532  
C        C      0.465500000000     0.062200000000     0.922000000000     0.0415532  
C        C      0.539700000000     0.211300000000     0.944200000000     0.0415532  
C        C      0.222800000000     0.547300000000     0.973900000000     0.0415532  
C        C      0.119400000000     0.477000000000     0.961200000000     0.0415532  
C        C      0.051500000000     0.474300000000     0.908200000000     0.0415532  
C        C      0.949800000000     0.410500000000     0.898700000000     0.0415532  
C        C      0.914300000000     0.349900000000     0.942600000000     0.0415532  
C        C      0.981400000000     0.351200000000     0.994300000000     0.0415532  
C        C      0.084000000000     0.413800000000     0.003900000000     0.0415532  
C        C      0.944700000000     0.286900000000     0.043400000000     0.0415532  
C        C      0.543500000000     0.662200000000     0.917100000000     0.0415532  
C        C      0.627000000000     0.651700000000     0.866900000000     0.0415532  
C        C      0.698600000000     0.600300000000     0.877900000000     0.0415532  
C        C      0.777500000000     0.592500000000     0.832100000000     0.0415532  
C        C      0.779900000000     0.631700000000     0.775900000000     0.0415532  
C        C      0.707200000000     0.681600000000     0.764400000000     0.0415532  
C        C      0.631500000000     0.691200000000     0.811000000000     0.0415532  
C        C      0.713500000000     0.724000000000     0.703800000000     0.0415532  
N        N      0.531700000000     0.893000000000     0.648900000000    -0.178493   
N        N      0.003700000000     0.405100000000     0.610000000000    -0.178493   
N        N      0.968300000000     0.107000000000     0.148900000000    -0.178493   
N        N      0.496300000000     0.594900000000     0.110000000000    -0.178493   
N        N      0.468300000000     0.107000000000     0.351100000000    -0.178493   
N        N      0.996300000000     0.594900000000     0.390000000000    -0.178493   
N        N      0.031700000000     0.893000000000     0.851100000000    -0.178493   
N        N      0.503700000000     0.405100000000     0.890000000000    -0.178493   
O        O      0.782900000000     0.921000000000     0.607400000000    -0.293759   
O        O      0.903500000000     0.844900000000     0.582900000000    -0.293759   
O        O      0.946300000000     0.223600000000     0.571300000000    -0.293759   
O        O      0.125100000000     0.268400000000     0.530300000000    -0.293759   
O        O      0.738700000000     0.606700000000     0.561200000000    -0.293759   
O        O      0.789000000000     0.543600000000     0.480600000000    -0.293759   
O        O      0.337500000000     0.243700000000     0.454400000000    -0.293759   
O        O      0.517700000000     0.273300000000     0.420400000000    -0.293759   
O        O      0.042100000000     0.622400000000     0.532900000000    -0.293759   
O        O      0.983500000000     0.709100000000     0.593300000000    -0.293759   
O        O      0.151900000000     0.772600000000     0.801800000000    -0.293759   
O        O      0.275800000000     0.706400000000     0.836800000000    -0.293759   
O        O      0.717100000000     0.079000000000     0.107400000000    -0.293759   
O        O      0.596500000000     0.155100000000     0.082900000000    -0.293759   
O        O      0.553700000000     0.776400000000     0.071300000000    -0.293759   
O        O      0.374900000000     0.731600000000     0.030300000000    -0.293759   
O        O      0.761300000000     0.393300000000     0.061200000000    -0.293759   
O        O      0.711000000000     0.456400000000     0.980600000000    -0.293759   
O        O      0.162500000000     0.756300000000     0.954400000000    -0.293759   
O        O      0.982300000000     0.726700000000     0.920400000000    -0.293759   
O        O      0.457900000000     0.377600000000     0.032900000000    -0.293759   
O        O      0.516500000000     0.290900000000     0.093300000000    -0.293759   
O        O      0.348100000000     0.227400000000     0.301800000000    -0.293759   
O        O      0.224200000000     0.293600000000     0.336800000000    -0.293759   
O        O      0.217100000000     0.079000000000     0.392600000000    -0.293759   
O        O      0.096500000000     0.155100000000     0.417100000000    -0.293759   
O        O      0.053700000000     0.776400000000     0.428700000000    -0.293759   
O        O      0.874900000000     0.731600000000     0.469700000000    -0.293759   
O        O      0.261300000000     0.393300000000     0.438800000000    -0.293759   
O        O      0.211000000000     0.456400000000     0.519400000000    -0.293759   
O        O      0.662500000000     0.756300000000     0.545600000000    -0.293759   
O        O      0.482300000000     0.726700000000     0.579600000000    -0.293759   
O        O      0.957900000000     0.377600000000     0.467100000000    -0.293759   
O        O      0.016500000000     0.290900000000     0.406700000000    -0.293759   
O        O      0.848100000000     0.227400000000     0.198200000000    -0.293759   
O        O      0.724200000000     0.293600000000     0.163200000000    -0.293759   
O        O      0.282900000000     0.921000000000     0.892600000000    -0.293759   
O        O      0.403500000000     0.844900000000     0.917100000000    -0.293759   
O        O      0.446300000000     0.223600000000     0.928700000000    -0.293759   
O        O      0.625100000000     0.268400000000     0.969700000000    -0.293759   
O        O      0.238700000000     0.606700000000     0.938800000000    -0.293759   
O        O      0.289000000000     0.543600000000     0.019400000000    -0.293759   
O        O      0.837500000000     0.243700000000     0.045600000000    -0.293759   
O        O      0.017700000000     0.273300000000     0.079600000000    -0.293759   
O        O      0.542100000000     0.622400000000     0.967100000000    -0.293759   
O        O      0.483500000000     0.709100000000     0.906700000000    -0.293759   
O        O      0.651900000000     0.772600000000     0.698200000000    -0.293759   
O        O      0.775800000000     0.706400000000     0.663200000000    -0.293759   


