data_TISKOW_original

_audit_creation_method RASPA-1.0
_audit_creation_date 2022-1-31
_audit_author_name 'Felipe Lopes de Oliveira <felipe.lopes.oliveira@ibm.com>'

_cell_length_a    14.2036
_cell_length_b    14.4601
_cell_length_c    18.0724
_cell_angle_alpha 88.1977
_cell_angle_beta  66.861
_cell_angle_gamma 60.5851
_cell_volume      2912.1

_symmetry_cell_setting          triclinic
_symmetry_space_group_name_Hall 'P 1'
_symmetry_space_group_name_H-M  'P 1'
_symmetry_Int_Tables_number     1

_symmetry_equiv_pos_as_xyz 'x,y,z'

loop_
_atom_site_label
_atom_site_type_symbol
_atom_site_fract_x
_atom_site_fract_y
_atom_site_fract_z
_atom_site_charge
Zn       Zn     0.393160000000     0.008160000000     0.364920000000     0.402522   
Zn       Zn     0.802270000000     0.204280000000     0.576500000000     0.402522   
Zn       Zn     0.784560000000     0.584030000000     0.405270000000     0.402522   
Zn       Zn     0.266240000000     0.491840000000     0.135080000000     0.402522   
Zn       Zn     0.083050000000     0.295720000000     0.923500000000     0.402522   
Zn       Zn     0.273860000000     0.915970000000     0.094730000000     0.402522   
Zn       Zn     0.606840000000     0.991840000000     0.635080000000     0.402522   
Zn       Zn     0.197730000000     0.795720000000     0.423500000000     0.402522   
Zn       Zn     0.215440000000     0.415970000000     0.594730000000     0.402522   
Zn       Zn     0.733760000000     0.508160000000     0.864920000000     0.402522   
Zn       Zn     0.916950000000     0.704280000000     0.076500000000     0.402522   
Zn       Zn     0.726140000000     0.084030000000     0.905270000000     0.402522   
Zn       Zn     0.000000000000     0.500000000000     0.500000000000     0.402522   
Zn       Zn     0.500000000000     0.000000000000     0.000000000000     0.402522   
H        H      0.950100000000     0.308900000000     0.562500000000     0.0250342  
H        H      0.214300000000     0.461700000000     0.319500000000     0.0250342  
H        H      0.990200000000     0.563900000000     0.222500000000     0.0250342  
H        H      0.379900000000     0.163100000000     0.492300000000     0.0250342  
H        H      0.286300000000     0.596900000000     0.522100000000     0.0250342  
H        H      0.994800000000     0.152600000000     0.745200000000     0.0250342  
H        H      0.382000000000     0.965700000000     0.540700000000     0.0250342  
H        H      0.167700000000     0.246200000000     0.386200000000     0.0250342  
H        H      0.321500000000     0.191100000000     0.937500000000     0.0250342  
H        H      0.495500000000     0.038300000000     0.180500000000     0.0250342  
H        H      0.276600000000     0.936100000000     0.277500000000     0.0250342  
H        H      0.535300000000     0.336900000000     0.007700000000     0.0250342  
H        H      0.905300000000     0.903100000000     0.977900000000     0.0250342  
H        H      0.392600000000     0.347400000000     0.754800000000     0.0250342  
H        H      0.388400000000     0.534300000000     0.959300000000     0.0250342  
H        H      0.300100000000     0.253800000000     0.113800000000     0.0250342  
H        H      0.049900000000     0.691100000000     0.437500000000     0.0250342  
H        H      0.785700000000     0.538300000000     0.680500000000     0.0250342  
H        H      0.009800000000     0.436100000000     0.777500000000     0.0250342  
H        H      0.620100000000     0.836900000000     0.507700000000     0.0250342  
H        H      0.713700000000     0.403100000000     0.477900000000     0.0250342  
H        H      0.005200000000     0.847400000000     0.254800000000     0.0250342  
H        H      0.618000000000     0.034300000000     0.459300000000     0.0250342  
H        H      0.832300000000     0.753800000000     0.613800000000     0.0250342  
H        H      0.678500000000     0.808900000000     0.062500000000     0.0250342  
H        H      0.504500000000     0.961700000000     0.819500000000     0.0250342  
H        H      0.723400000000     0.063900000000     0.722500000000     0.0250342  
H        H      0.464700000000     0.663100000000     0.992300000000     0.0250342  
H        H      0.094700000000     0.096900000000     0.022100000000     0.0250342  
H        H      0.607400000000     0.652600000000     0.245200000000     0.0250342  
H        H      0.611600000000     0.465700000000     0.040700000000     0.0250342  
H        H      0.699900000000     0.746200000000     0.886200000000     0.0250342  
C        C      0.901000000000     0.346800000000     0.536800000000     0.11153    
C        C      0.991000000000     0.070800000000     0.622400000000     0.11153    
C        C      0.213100000000     0.003500000000     0.569900000000     0.11153    
C        C      0.383900000000     0.036600000000     0.671400000000     0.11153    
C        C      0.144700000000     0.487300000000     0.312500000000     0.11153    
C        C      0.023400000000     0.542700000000     0.259700000000     0.11153    
C        C      0.318300000000     0.203400000000     0.476800000000     0.11153    
C        C      0.280800000000     0.054300000000     0.656500000000     0.11153    
C        C      0.226700000000     0.602600000000     0.509000000000     0.11153    
C        C      0.241300000000     0.935900000000     0.494900000000     0.11153    
C        C      0.122400000000     0.174300000000     0.800900000000     0.11153    
C        C      0.073500000000     0.113200000000     0.704600000000     0.11153    
C        C      0.161900000000     0.110600000000     0.719200000000     0.11153    
C        C      0.304200000000     0.002000000000     0.582400000000     0.11153    
C        C      0.202700000000     0.249000000000     0.419400000000     0.11153    
C        C      0.095800000000     0.059800000000     0.632000000000     0.11153    
C        C      0.284600000000     0.153200000000     0.963200000000     0.11153    
C        C      0.184200000000     0.429200000000     0.877600000000     0.11153    
C        C      0.286500000000     0.496500000000     0.930100000000     0.11153    
C        C      0.591900000000     0.463400000000     0.828600000000     0.11153    
C        C      0.444500000000     0.012700000000     0.187500000000     0.11153    
C        C      0.325800000000     0.957300000000     0.240300000000     0.11153    
C        C      0.498500000000     0.296600000000     0.023200000000     0.11153    
C        C      0.491600000000     0.445700000000     0.843500000000     0.11153    
C        C      0.838300000000     0.897400000000     0.991000000000     0.11153    
C        C      0.172100000000     0.564100000000     0.005100000000     0.11153    
C        C      0.597600000000     0.325700000000     0.699100000000     0.11153    
C        C      0.391300000000     0.386800000000     0.795400000000     0.11153    
C        C      0.491700000000     0.389400000000     0.780800000000     0.11153    
C        C      0.388600000000     0.498000000000     0.917600000000     0.11153    
C        C      0.371100000000     0.251000000000     0.080600000000     0.11153    
C        C      0.287600000000     0.440200000000     0.868000000000     0.11153    
C        C      0.099000000000     0.653200000000     0.463200000000     0.11153    
C        C      0.009000000000     0.929200000000     0.377600000000     0.11153    
C        C      0.786900000000     0.996500000000     0.430100000000     0.11153    
C        C      0.616100000000     0.963400000000     0.328600000000     0.11153    
C        C      0.855300000000     0.512700000000     0.687500000000     0.11153    
C        C      0.976600000000     0.457300000000     0.740300000000     0.11153    
C        C      0.681700000000     0.796600000000     0.523200000000     0.11153    
C        C      0.719200000000     0.945700000000     0.343500000000     0.11153    
C        C      0.773300000000     0.397400000000     0.491000000000     0.11153    
C        C      0.758700000000     0.064100000000     0.505100000000     0.11153    
C        C      0.877600000000     0.825700000000     0.199100000000     0.11153    
C        C      0.926500000000     0.886800000000     0.295400000000     0.11153    
C        C      0.838100000000     0.889400000000     0.280800000000     0.11153    
C        C      0.695800000000     0.998000000000     0.417600000000     0.11153    
C        C      0.797300000000     0.751000000000     0.580600000000     0.11153    
C        C      0.904200000000     0.940200000000     0.368000000000     0.11153    
C        C      0.715400000000     0.846800000000     0.036800000000     0.11153    
C        C      0.815800000000     0.570800000000     0.122400000000     0.11153    
C        C      0.713500000000     0.503500000000     0.069900000000     0.11153    
C        C      0.408100000000     0.536600000000     0.171400000000     0.11153    
C        C      0.555500000000     0.987300000000     0.812500000000     0.11153    
C        C      0.674200000000     0.042700000000     0.759700000000     0.11153    
C        C      0.501500000000     0.703400000000     0.976800000000     0.11153    
C        C      0.508400000000     0.554300000000     0.156500000000     0.11153    
C        C      0.161700000000     0.102600000000     0.009000000000     0.11153    
C        C      0.827900000000     0.435900000000     0.994900000000     0.11153    
C        C      0.402400000000     0.674300000000     0.300900000000     0.11153    
C        C      0.608700000000     0.613200000000     0.204600000000     0.11153    
C        C      0.508300000000     0.610600000000     0.219200000000     0.11153    
C        C      0.611400000000     0.502000000000     0.082400000000     0.11153    
C        C      0.628900000000     0.749000000000     0.919400000000     0.11153    
C        C      0.712400000000     0.559800000000     0.132000000000     0.11153    
N        N      0.043400000000     0.504700000000     0.370700000000    -0.137246   
N        N      0.963810000000     0.540580000000     0.336600000000    -0.137246   
N        N      0.182210000000     0.539180000000     0.528200000000    -0.137246   
N        N      0.823100000000     0.324800000000     0.531000000000    -0.137246   
N        N      0.299600000000     0.161900000000     0.421900000000    -0.137246   
N        N      0.137700000000     0.510300000000     0.241500000000    -0.137246   
N        N      0.239100000000     0.307700000000     0.505900000000    -0.137246   
N        N      0.900630000000     0.428040000000     0.502100000000    -0.137246   
N        N      0.163100000000     0.337600000000     0.468200000000    -0.137246   
N        N      0.418800000000     0.995300000000     0.129300000000    -0.137246   
N        N      0.340990000000     0.959420000000     0.163400000000    -0.137246   
N        N      0.749590000000     0.960820000000     0.971800000000    -0.137246   
N        N      0.178900000000     0.175200000000     0.969000000000    -0.137246   
N        N      0.383400000000     0.338100000000     0.078100000000    -0.137246   
N        N      0.389500000000     0.989700000000     0.258500000000    -0.137246   
N        N      0.552700000000     0.192300000000     0.994100000000    -0.137246   
N        N      0.330770000000     0.071960000000     0.997900000000    -0.137246   
N        N      0.468900000000     0.162400000000     0.031800000000    -0.137246   
N        N      0.956600000000     0.495300000000     0.629300000000    -0.137246   
N        N      0.036190000000     0.459420000000     0.663400000000    -0.137246   
N        N      0.817790000000     0.460820000000     0.471800000000    -0.137246   
N        N      0.176900000000     0.675200000000     0.469000000000    -0.137246   
N        N      0.700400000000     0.838100000000     0.578100000000    -0.137246   
N        N      0.862300000000     0.489700000000     0.758500000000    -0.137246   
N        N      0.760900000000     0.692300000000     0.494100000000    -0.137246   
N        N      0.099370000000     0.571960000000     0.497900000000    -0.137246   
N        N      0.836900000000     0.662400000000     0.531800000000    -0.137246   
N        N      0.581200000000     0.004700000000     0.870700000000    -0.137246   
N        N      0.659010000000     0.040580000000     0.836600000000    -0.137246   
N        N      0.250410000000     0.039180000000     0.028200000000    -0.137246   
N        N      0.821100000000     0.824800000000     0.031000000000    -0.137246   
N        N      0.616600000000     0.661900000000     0.921900000000    -0.137246   
N        N      0.610500000000     0.010300000000     0.741500000000    -0.137246   
N        N      0.447300000000     0.807700000000     0.005900000000    -0.137246   
N        N      0.669230000000     0.928040000000     0.002100000000    -0.137246   
N        N      0.531100000000     0.837600000000     0.968200000000    -0.137246   
O        O      0.157700000000     0.237000000000     0.801200000000    -0.269796   
O        O      0.968290000000     0.120020000000     0.568000000000    -0.269796   
O        O      0.055100000000     0.164500000000     0.864900000000    -0.269796   
O        O      0.683830000000     0.071540000000     0.574800000000    -0.269796   
O        O      0.189050000000     0.884400000000     0.507700000000    -0.269796   
O        O      0.398000000000     0.997500000000     0.729500000000    -0.269796   
O        O      0.541300000000     0.941200000000     0.382200000000    -0.269796   
O        O      0.927200000000     0.039400000000     0.671600000000    -0.269796   
O        O      0.695900000000     0.263000000000     0.698800000000    -0.269796   
O        O      0.156310000000     0.379980000000     0.932000000000    -0.269796   
O        O      0.584500000000     0.335500000000     0.635100000000    -0.269796   
O        O      0.830170000000     0.428460000000     0.925200000000    -0.269796   
O        O      0.081150000000     0.615600000000     0.992300000000    -0.269796   
O        O      0.625000000000     0.502500000000     0.770500000000    -0.269796   
O        O      0.364700000000     0.558800000000     0.117800000000    -0.269796   
O        O      0.138200000000     0.460600000000     0.828400000000    -0.269796   
O        O      0.842300000000     0.763000000000     0.198800000000    -0.269796   
O        O      0.031710000000     0.879980000000     0.432000000000    -0.269796   
O        O      0.944900000000     0.835500000000     0.135100000000    -0.269796   
O        O      0.316170000000     0.928460000000     0.425200000000    -0.269796   
O        O      0.810950000000     0.115600000000     0.492300000000    -0.269796   
O        O      0.602000000000     0.002500000000     0.270500000000    -0.269796   
O        O      0.458700000000     0.058800000000     0.617800000000    -0.269796   
O        O      0.072800000000     0.960600000000     0.328400000000    -0.269796   
O        O      0.304100000000     0.737000000000     0.301200000000    -0.269796   
O        O      0.843690000000     0.620020000000     0.068000000000    -0.269796   
O        O      0.415500000000     0.664500000000     0.364900000000    -0.269796   
O        O      0.169830000000     0.571540000000     0.074800000000    -0.269796   
O        O      0.918850000000     0.384400000000     0.007700000000    -0.269796   
O        O      0.375000000000     0.497500000000     0.229500000000    -0.269796   
O        O      0.635300000000     0.441200000000     0.882200000000    -0.269796   
O        O      0.861800000000     0.539400000000     0.171600000000    -0.269796   


