data_TUDJOS_original

_audit_creation_method RASPA-1.0
_audit_creation_date 2022-1-30
_audit_author_name 'Felipe Lopes de Oliveira <felipe.lopes.oliveira@ibm.com>'

_cell_length_a    17.071
_cell_length_b    17.071
_cell_length_c    17.071
_cell_angle_alpha 90
_cell_angle_beta  90
_cell_angle_gamma 90
_cell_volume      4974.81

_symmetry_cell_setting          triclinic
_symmetry_space_group_name_Hall 'P 1'
_symmetry_space_group_name_H-M  'P 1'
_symmetry_Int_Tables_number     1

_symmetry_equiv_pos_as_xyz 'x,y,z'

loop_
_atom_site_label
_atom_site_type_symbol
_atom_site_fract_x
_atom_site_fract_y
_atom_site_fract_z
_atom_site_charge
Zn       Zn     0.500000000000     0.000000000000     0.750000000000     0.324019   
Zn       Zn     0.000000000000     0.500000000000     0.250000000000     0.324019   
Zn       Zn     0.000000000000     0.750000000000     0.500000000000     0.324019   
Zn       Zn     0.500000000000     0.250000000000     0.000000000000     0.324019   
Zn       Zn     0.750000000000     0.500000000000     0.000000000000     0.324019   
Zn       Zn     0.250000000000     0.000000000000     0.500000000000     0.324019   
Zn       Zn     0.750000000000     0.000000000000     0.500000000000     0.324019   
Zn       Zn     0.250000000000     0.500000000000     0.000000000000     0.324019   
Zn       Zn     0.500000000000     0.000000000000     0.250000000000     0.324019   
Zn       Zn     0.000000000000     0.500000000000     0.750000000000     0.324019   
Zn       Zn     0.000000000000     0.250000000000     0.500000000000     0.324019   
Zn       Zn     0.500000000000     0.750000000000     0.000000000000     0.324019   
H        H      0.418100000000     0.847200000000     0.681700000000     0.157469   
H        H      0.918100000000     0.347200000000     0.181700000000     0.157469   
H        H      0.847200000000     0.681700000000     0.418100000000     0.157469   
H        H      0.347200000000     0.181700000000     0.918100000000     0.157469   
H        H      0.681700000000     0.418100000000     0.847200000000     0.157469   
H        H      0.181700000000     0.918100000000     0.347200000000     0.157469   
H        H      0.847200000000     0.581900000000     0.318300000000     0.157469   
H        H      0.347200000000     0.081900000000     0.818300000000     0.157469   
H        H      0.681700000000     0.152800000000     0.581900000000     0.157469   
H        H      0.181700000000     0.652800000000     0.081900000000     0.157469   
H        H      0.418100000000     0.318300000000     0.152800000000     0.157469   
H        H      0.918100000000     0.818300000000     0.652800000000     0.157469   
H        H      0.581900000000     0.152800000000     0.681700000000     0.157469   
H        H      0.081900000000     0.652800000000     0.181700000000     0.157469   
H        H      0.318300000000     0.418100000000     0.152800000000     0.157469   
H        H      0.818300000000     0.918100000000     0.652800000000     0.157469   
H        H      0.581900000000     0.847200000000     0.318300000000     0.157469   
H        H      0.081900000000     0.347200000000     0.818300000000     0.157469   
H        H      0.152800000000     0.318300000000     0.418100000000     0.157469   
H        H      0.652800000000     0.818300000000     0.918100000000     0.157469   
H        H      0.318300000000     0.581900000000     0.847200000000     0.157469   
H        H      0.818300000000     0.081900000000     0.347200000000     0.157469   
H        H      0.152800000000     0.418100000000     0.318300000000     0.157469   
H        H      0.652800000000     0.918100000000     0.818300000000     0.157469   
H        H      0.318300000000     0.847200000000     0.581900000000     0.157469   
H        H      0.818300000000     0.347200000000     0.081900000000     0.157469   
H        H      0.581900000000     0.681700000000     0.152800000000     0.157469   
H        H      0.081900000000     0.181700000000     0.652800000000     0.157469   
H        H      0.152800000000     0.681700000000     0.581900000000     0.157469   
H        H      0.652800000000     0.181700000000     0.081900000000     0.157469   
H        H      0.681700000000     0.847200000000     0.418100000000     0.157469   
H        H      0.181700000000     0.347200000000     0.918100000000     0.157469   
H        H      0.418100000000     0.681700000000     0.847200000000     0.157469   
H        H      0.918100000000     0.181700000000     0.347200000000     0.157469   
H        H      0.847200000000     0.418100000000     0.681700000000     0.157469   
H        H      0.347200000000     0.918100000000     0.181700000000     0.157469   
H        H      0.847200000000     0.318300000000     0.581900000000     0.157469   
H        H      0.347200000000     0.818300000000     0.081900000000     0.157469   
H        H      0.152800000000     0.581900000000     0.681700000000     0.157469   
H        H      0.652800000000     0.081900000000     0.181700000000     0.157469   
H        H      0.318300000000     0.152800000000     0.418100000000     0.157469   
H        H      0.818300000000     0.652800000000     0.918100000000     0.157469   
H        H      0.581900000000     0.318300000000     0.847200000000     0.157469   
H        H      0.081900000000     0.818300000000     0.347200000000     0.157469   
H        H      0.418100000000     0.152800000000     0.318300000000     0.157469   
H        H      0.918100000000     0.652800000000     0.818300000000     0.157469   
H        H      0.681700000000     0.581900000000     0.152800000000     0.157469   
H        H      0.181700000000     0.081900000000     0.652800000000     0.157469   
H        H      0.404300000000     0.116800000000     0.595700000000     0.157469   
H        H      0.904300000000     0.616800000000     0.095700000000     0.157469   
H        H      0.116800000000     0.595700000000     0.404300000000     0.157469   
H        H      0.616800000000     0.095700000000     0.904300000000     0.157469   
H        H      0.595700000000     0.404300000000     0.116800000000     0.157469   
H        H      0.095700000000     0.904300000000     0.616800000000     0.157469   
H        H      0.595700000000     0.883200000000     0.595700000000     0.157469   
H        H      0.095700000000     0.383200000000     0.095700000000     0.157469   
H        H      0.404300000000     0.404300000000     0.883200000000     0.157469   
H        H      0.904300000000     0.904300000000     0.383200000000     0.157469   
H        H      0.595700000000     0.116800000000     0.404300000000     0.157469   
H        H      0.095700000000     0.616800000000     0.904300000000     0.157469   
H        H      0.883200000000     0.404300000000     0.404300000000     0.157469   
H        H      0.383200000000     0.904300000000     0.904300000000     0.157469   
H        H      0.404300000000     0.595700000000     0.116800000000     0.157469   
H        H      0.904300000000     0.095700000000     0.616800000000     0.157469   
H        H      0.595700000000     0.595700000000     0.883200000000     0.157469   
H        H      0.095700000000     0.095700000000     0.383200000000     0.157469   
H        H      0.883200000000     0.595700000000     0.595700000000     0.157469   
H        H      0.383200000000     0.095700000000     0.095700000000     0.157469   
H        H      0.116800000000     0.404300000000     0.595700000000     0.157469   
H        H      0.616800000000     0.904300000000     0.095700000000     0.157469   
H        H      0.404300000000     0.883200000000     0.404300000000     0.157469   
H        H      0.904300000000     0.383200000000     0.904300000000     0.157469   
H        H      0.315800000000     0.118600000000     0.619600000000     0.157469   
H        H      0.815800000000     0.618600000000     0.119600000000     0.157469   
H        H      0.118600000000     0.619600000000     0.315800000000     0.157469   
H        H      0.618600000000     0.119600000000     0.815800000000     0.157469   
H        H      0.619600000000     0.315800000000     0.118600000000     0.157469   
H        H      0.119600000000     0.815800000000     0.618600000000     0.157469   
H        H      0.118600000000     0.684200000000     0.380400000000     0.157469   
H        H      0.618600000000     0.184200000000     0.880400000000     0.157469   
H        H      0.619600000000     0.881400000000     0.684200000000     0.157469   
H        H      0.119600000000     0.381400000000     0.184200000000     0.157469   
H        H      0.315800000000     0.380400000000     0.881400000000     0.157469   
H        H      0.815800000000     0.880400000000     0.381400000000     0.157469   
H        H      0.684200000000     0.881400000000     0.619600000000     0.157469   
H        H      0.184200000000     0.381400000000     0.119600000000     0.157469   
H        H      0.380400000000     0.315800000000     0.881400000000     0.157469   
H        H      0.880400000000     0.815800000000     0.381400000000     0.157469   
H        H      0.684200000000     0.118600000000     0.380400000000     0.157469   
H        H      0.184200000000     0.618600000000     0.880400000000     0.157469   
H        H      0.881400000000     0.380400000000     0.315800000000     0.157469   
H        H      0.381400000000     0.880400000000     0.815800000000     0.157469   
H        H      0.380400000000     0.684200000000     0.118600000000     0.157469   
H        H      0.880400000000     0.184200000000     0.618600000000     0.157469   
H        H      0.881400000000     0.315800000000     0.380400000000     0.157469   
H        H      0.381400000000     0.815800000000     0.880400000000     0.157469   
H        H      0.380400000000     0.118600000000     0.684200000000     0.157469   
H        H      0.880400000000     0.618600000000     0.184200000000     0.157469   
H        H      0.684200000000     0.619600000000     0.881400000000     0.157469   
H        H      0.184200000000     0.119600000000     0.381400000000     0.157469   
H        H      0.881400000000     0.619600000000     0.684200000000     0.157469   
H        H      0.381400000000     0.119600000000     0.184200000000     0.157469   
H        H      0.619600000000     0.118600000000     0.315800000000     0.157469   
H        H      0.119600000000     0.618600000000     0.815800000000     0.157469   
H        H      0.315800000000     0.619600000000     0.118600000000     0.157469   
H        H      0.815800000000     0.119600000000     0.618600000000     0.157469   
H        H      0.118600000000     0.315800000000     0.619600000000     0.157469   
H        H      0.618600000000     0.815800000000     0.119600000000     0.157469   
H        H      0.118600000000     0.380400000000     0.684200000000     0.157469   
H        H      0.618600000000     0.880400000000     0.184200000000     0.157469   
H        H      0.881400000000     0.684200000000     0.619600000000     0.157469   
H        H      0.381400000000     0.184200000000     0.119600000000     0.157469   
H        H      0.380400000000     0.881400000000     0.315800000000     0.157469   
H        H      0.880400000000     0.381400000000     0.815800000000     0.157469   
H        H      0.684200000000     0.380400000000     0.118600000000     0.157469   
H        H      0.184200000000     0.880400000000     0.618600000000     0.157469   
H        H      0.315800000000     0.881400000000     0.380400000000     0.157469   
H        H      0.815800000000     0.381400000000     0.880400000000     0.157469   
H        H      0.619600000000     0.684200000000     0.881400000000     0.157469   
H        H      0.119600000000     0.184200000000     0.381400000000     0.157469   
C        C      0.364700000000     0.011000000000     0.635300000000    -0.13326    
C        C      0.864700000000     0.511000000000     0.135300000000    -0.13326    
C        C      0.011000000000     0.635300000000     0.364700000000    -0.13326    
C        C      0.511000000000     0.135300000000     0.864700000000    -0.13326    
C        C      0.635300000000     0.364700000000     0.011000000000    -0.13326    
C        C      0.135300000000     0.864700000000     0.511000000000    -0.13326    
C        C      0.635300000000     0.989000000000     0.635300000000    -0.13326    
C        C      0.135300000000     0.489000000000     0.135300000000    -0.13326    
C        C      0.364700000000     0.364700000000     0.989000000000    -0.13326    
C        C      0.864700000000     0.864700000000     0.489000000000    -0.13326    
C        C      0.635300000000     0.011000000000     0.364700000000    -0.13326    
C        C      0.135300000000     0.511000000000     0.864700000000    -0.13326    
C        C      0.989000000000     0.364700000000     0.364700000000    -0.13326    
C        C      0.489000000000     0.864700000000     0.864700000000    -0.13326    
C        C      0.364700000000     0.635300000000     0.011000000000    -0.13326    
C        C      0.864700000000     0.135300000000     0.511000000000    -0.13326    
C        C      0.635300000000     0.635300000000     0.989000000000    -0.13326    
C        C      0.135300000000     0.135300000000     0.489000000000    -0.13326    
C        C      0.989000000000     0.635300000000     0.635300000000    -0.13326    
C        C      0.489000000000     0.135300000000     0.135300000000    -0.13326    
C        C      0.011000000000     0.364700000000     0.635300000000    -0.13326    
C        C      0.511000000000     0.864700000000     0.135300000000    -0.13326    
C        C      0.364700000000     0.989000000000     0.364700000000    -0.13326    
C        C      0.864700000000     0.489000000000     0.864700000000    -0.13326    
C        C      0.394400000000     0.891500000000     0.660700000000    -0.13326    
C        C      0.894400000000     0.391500000000     0.160700000000    -0.13326    
C        C      0.891500000000     0.660700000000     0.394400000000    -0.13326    
C        C      0.391500000000     0.160700000000     0.894400000000    -0.13326    
C        C      0.660700000000     0.394400000000     0.891500000000    -0.13326    
C        C      0.160700000000     0.894400000000     0.391500000000    -0.13326    
C        C      0.891500000000     0.605600000000     0.339300000000    -0.13326    
C        C      0.391500000000     0.105600000000     0.839300000000    -0.13326    
C        C      0.660700000000     0.108500000000     0.605600000000    -0.13326    
C        C      0.160700000000     0.608500000000     0.105600000000    -0.13326    
C        C      0.394400000000     0.339300000000     0.108500000000    -0.13326    
C        C      0.894400000000     0.839300000000     0.608500000000    -0.13326    
C        C      0.605600000000     0.108500000000     0.660700000000    -0.13326    
C        C      0.105600000000     0.608500000000     0.160700000000    -0.13326    
C        C      0.339300000000     0.394400000000     0.108500000000    -0.13326    
C        C      0.839300000000     0.894400000000     0.608500000000    -0.13326    
C        C      0.605600000000     0.891500000000     0.339300000000    -0.13326    
C        C      0.105600000000     0.391500000000     0.839300000000    -0.13326    
C        C      0.108500000000     0.339300000000     0.394400000000    -0.13326    
C        C      0.608500000000     0.839300000000     0.894400000000    -0.13326    
C        C      0.339300000000     0.605600000000     0.891500000000    -0.13326    
C        C      0.839300000000     0.105600000000     0.391500000000    -0.13326    
C        C      0.108500000000     0.394400000000     0.339300000000    -0.13326    
C        C      0.608500000000     0.894400000000     0.839300000000    -0.13326    
C        C      0.339300000000     0.891500000000     0.605600000000    -0.13326    
C        C      0.839300000000     0.391500000000     0.105600000000    -0.13326    
C        C      0.605600000000     0.660700000000     0.108500000000    -0.13326    
C        C      0.105600000000     0.160700000000     0.608500000000    -0.13326    
C        C      0.108500000000     0.660700000000     0.605600000000    -0.13326    
C        C      0.608500000000     0.160700000000     0.105600000000    -0.13326    
C        C      0.660700000000     0.891500000000     0.394400000000    -0.13326    
C        C      0.160700000000     0.391500000000     0.894400000000    -0.13326    
C        C      0.394400000000     0.660700000000     0.891500000000    -0.13326    
C        C      0.894400000000     0.160700000000     0.391500000000    -0.13326    
C        C      0.891500000000     0.394400000000     0.660700000000    -0.13326    
C        C      0.391500000000     0.894400000000     0.160700000000    -0.13326    
C        C      0.891500000000     0.339300000000     0.605600000000    -0.13326    
C        C      0.391500000000     0.839300000000     0.105600000000    -0.13326    
C        C      0.108500000000     0.605600000000     0.660700000000    -0.13326    
C        C      0.608500000000     0.105600000000     0.160700000000    -0.13326    
C        C      0.339300000000     0.108500000000     0.394400000000    -0.13326    
C        C      0.839300000000     0.608500000000     0.894400000000    -0.13326    
C        C      0.605600000000     0.339300000000     0.891500000000    -0.13326    
C        C      0.105600000000     0.839300000000     0.391500000000    -0.13326    
C        C      0.394400000000     0.108500000000     0.339300000000    -0.13326    
C        C      0.894400000000     0.608500000000     0.839300000000    -0.13326    
C        C      0.660700000000     0.605600000000     0.108500000000    -0.13326    
C        C      0.160700000000     0.105600000000     0.608500000000    -0.13326    
C        C      0.366600000000     0.098900000000     0.633400000000    -0.13326    
C        C      0.866600000000     0.598900000000     0.133400000000    -0.13326    
C        C      0.098900000000     0.633400000000     0.366600000000    -0.13326    
C        C      0.598900000000     0.133400000000     0.866600000000    -0.13326    
C        C      0.633400000000     0.366600000000     0.098900000000    -0.13326    
C        C      0.133400000000     0.866600000000     0.598900000000    -0.13326    
C        C      0.633400000000     0.901100000000     0.633400000000    -0.13326    
C        C      0.133400000000     0.401100000000     0.133400000000    -0.13326    
C        C      0.366600000000     0.366600000000     0.901100000000    -0.13326    
C        C      0.866600000000     0.866600000000     0.401100000000    -0.13326    
C        C      0.633400000000     0.098900000000     0.366600000000    -0.13326    
C        C      0.133400000000     0.598900000000     0.866600000000    -0.13326    
C        C      0.901100000000     0.366600000000     0.366600000000    -0.13326    
C        C      0.401100000000     0.866600000000     0.866600000000    -0.13326    
C        C      0.366600000000     0.633400000000     0.098900000000    -0.13326    
C        C      0.866600000000     0.133400000000     0.598900000000    -0.13326    
C        C      0.633400000000     0.633400000000     0.901100000000    -0.13326    
C        C      0.133400000000     0.133400000000     0.401100000000    -0.13326    
C        C      0.901100000000     0.633400000000     0.633400000000    -0.13326    
C        C      0.401100000000     0.133400000000     0.133400000000    -0.13326    
C        C      0.098900000000     0.366600000000     0.633400000000    -0.13326    
C        C      0.598900000000     0.866600000000     0.133400000000    -0.13326    
C        C      0.366600000000     0.901100000000     0.366600000000    -0.13326    
C        C      0.866600000000     0.401100000000     0.866600000000    -0.13326    
N        N      0.410900000000     0.968100000000     0.681600000000    -0.208157   
N        N      0.910900000000     0.468100000000     0.181600000000    -0.208157   
N        N      0.968100000000     0.681600000000     0.410900000000    -0.208157   
N        N      0.468100000000     0.181600000000     0.910900000000    -0.208157   
N        N      0.681600000000     0.410900000000     0.968100000000    -0.208157   
N        N      0.181600000000     0.910900000000     0.468100000000    -0.208157   
N        N      0.968100000000     0.589100000000     0.318400000000    -0.208157   
N        N      0.468100000000     0.089100000000     0.818400000000    -0.208157   
N        N      0.681600000000     0.031900000000     0.589100000000    -0.208157   
N        N      0.181600000000     0.531900000000     0.089100000000    -0.208157   
N        N      0.410900000000     0.318400000000     0.031900000000    -0.208157   
N        N      0.910900000000     0.818400000000     0.531900000000    -0.208157   
N        N      0.589100000000     0.031900000000     0.681600000000    -0.208157   
N        N      0.089100000000     0.531900000000     0.181600000000    -0.208157   
N        N      0.318400000000     0.410900000000     0.031900000000    -0.208157   
N        N      0.818400000000     0.910900000000     0.531900000000    -0.208157   
N        N      0.589100000000     0.968100000000     0.318400000000    -0.208157   
N        N      0.089100000000     0.468100000000     0.818400000000    -0.208157   
N        N      0.031900000000     0.318400000000     0.410900000000    -0.208157   
N        N      0.531900000000     0.818400000000     0.910900000000    -0.208157   
N        N      0.318400000000     0.589100000000     0.968100000000    -0.208157   
N        N      0.818400000000     0.089100000000     0.468100000000    -0.208157   
N        N      0.031900000000     0.410900000000     0.318400000000    -0.208157   
N        N      0.531900000000     0.910900000000     0.818400000000    -0.208157   
N        N      0.318400000000     0.968100000000     0.589100000000    -0.208157   
N        N      0.818400000000     0.468100000000     0.089100000000    -0.208157   
N        N      0.589100000000     0.681600000000     0.031900000000    -0.208157   
N        N      0.089100000000     0.181600000000     0.531900000000    -0.208157   
N        N      0.031900000000     0.681600000000     0.589100000000    -0.208157   
N        N      0.531900000000     0.181600000000     0.089100000000    -0.208157   
N        N      0.681600000000     0.968100000000     0.410900000000    -0.208157   
N        N      0.181600000000     0.468100000000     0.910900000000    -0.208157   
N        N      0.410900000000     0.681600000000     0.968100000000    -0.208157   
N        N      0.910900000000     0.181600000000     0.468100000000    -0.208157   
N        N      0.968100000000     0.410900000000     0.681600000000    -0.208157   
N        N      0.468100000000     0.910900000000     0.181600000000    -0.208157   
N        N      0.968100000000     0.318400000000     0.589100000000    -0.208157   
N        N      0.468100000000     0.818400000000     0.089100000000    -0.208157   
N        N      0.031900000000     0.589100000000     0.681600000000    -0.208157   
N        N      0.531900000000     0.089100000000     0.181600000000    -0.208157   
N        N      0.318400000000     0.031900000000     0.410900000000    -0.208157   
N        N      0.818400000000     0.531900000000     0.910900000000    -0.208157   
N        N      0.589100000000     0.318400000000     0.968100000000    -0.208157   
N        N      0.089100000000     0.818400000000     0.468100000000    -0.208157   
N        N      0.410900000000     0.031900000000     0.318400000000    -0.208157   
N        N      0.910900000000     0.531900000000     0.818400000000    -0.208157   
N        N      0.681600000000     0.589100000000     0.031900000000    -0.208157   
N        N      0.181600000000     0.089100000000     0.531900000000    -0.208157   


