data_UBACOR_original

_audit_creation_method RASPA-1.0
_audit_creation_date 2022-1-30
_audit_author_name 'Felipe Lopes de Oliveira <felipe.lopes.oliveira@ibm.com>'

_cell_length_a    13.996
_cell_length_b    14.6219
_cell_length_c    18.5851
_cell_angle_alpha 69.1246
_cell_angle_beta  67.8806
_cell_angle_gamma 61.4062
_cell_volume      3020.34

_symmetry_cell_setting          triclinic
_symmetry_space_group_name_Hall 'P 1'
_symmetry_space_group_name_H-M  'P 1'
_symmetry_Int_Tables_number     1

_symmetry_equiv_pos_as_xyz 'x,y,z'

loop_
_atom_site_label
_atom_site_type_symbol
_atom_site_fract_x
_atom_site_fract_y
_atom_site_fract_z
_atom_site_charge
Zn       Zn     0.918730000000     0.563720000000     0.898420000000     0.458231   
Zn       Zn     0.118940000000     0.763920000000     0.684320000000     0.458231   
Zn       Zn     0.380870000000     0.936280000000     0.601580000000     0.458231   
Zn       Zn     0.567180000000     0.736080000000     0.815680000000     0.458231   
Zn       Zn     0.081270000000     0.436280000000     0.101580000000     0.458231   
Zn       Zn     0.881060000000     0.236080000000     0.315680000000     0.458231   
Zn       Zn     0.619130000000     0.063720000000     0.398420000000     0.458231   
Zn       Zn     0.432820000000     0.263920000000     0.184320000000     0.458231   
H        H      0.289100000000     0.410800000000     0.791000000000     0.0509493  
H        H      0.482800000000     0.357000000000     0.754600000000     0.0509493  
H        H      0.558400000000     0.463500000000     0.761300000000     0.0509493  
H        H      0.105700000000     0.969000000000     0.823000000000     0.0509493  
H        H      0.007900000000     0.943600000000     0.955000000000     0.0509493  
H        H      0.034100000000     0.772300000000     0.028500000000     0.0509493  
H        H      0.721200000000     0.636900000000     0.031500000000     0.0509493  
H        H      0.609300000000     0.783500000000     0.087500000000     0.0509493  
H        H      0.812200000000     0.926100000000     0.929300000000     0.0509493  
H        H      0.914600000000     0.775500000000     0.876700000000     0.0509493  
H        H      0.667500000000     0.133200000000     0.108800000000     0.0509493  
H        H      0.767900000000     0.991300000000     0.048700000000     0.0509493  
H        H      0.481000000000     0.967500000000     0.081300000000     0.0509493  
H        H      0.386500000000     0.119800000000     0.131000000000     0.0509493  
H        H      0.490900000000     0.089200000000     0.709000000000     0.0509493  
H        H      0.594400000000     0.143000000000     0.745400000000     0.0509493  
H        H      0.783200000000     0.036500000000     0.738700000000     0.0509493  
H        H      0.897700000000     0.531000000000     0.677000000000     0.0509493  
H        H      0.906500000000     0.556400000000     0.545000000000     0.0509493  
H        H      0.834900000000     0.727700000000     0.471500000000     0.0509493  
H        H      0.389600000000     0.863100000000     0.468500000000     0.0509493  
H        H      0.480300000000     0.716500000000     0.412500000000     0.0509493  
H        H      0.667600000000     0.573900000000     0.570700000000     0.0509493  
H        H      0.566800000000     0.724500000000     0.623300000000     0.0509493  
H        H      0.909500000000     0.366800000000     0.391200000000     0.0509493  
H        H      0.807900000000     0.508700000000     0.451300000000     0.0509493  
H        H      0.529800000000     0.532500000000     0.418700000000     0.0509493  
H        H      0.637300000000     0.380200000000     0.369000000000     0.0509493  
H        H      0.710900000000     0.589200000000     0.209000000000     0.0509493  
H        H      0.517200000000     0.643000000000     0.245400000000     0.0509493  
H        H      0.441600000000     0.536500000000     0.238700000000     0.0509493  
H        H      0.894300000000     0.031000000000     0.177000000000     0.0509493  
H        H      0.992100000000     0.056400000000     0.045000000000     0.0509493  
H        H      0.965900000000     0.227700000000     0.971500000000     0.0509493  
H        H      0.278800000000     0.363100000000     0.968500000000     0.0509493  
H        H      0.390700000000     0.216500000000     0.912500000000     0.0509493  
H        H      0.187800000000     0.073900000000     0.070700000000     0.0509493  
H        H      0.085400000000     0.224500000000     0.123300000000     0.0509493  
H        H      0.332500000000     0.866800000000     0.891200000000     0.0509493  
H        H      0.232100000000     0.008700000000     0.951300000000     0.0509493  
H        H      0.519000000000     0.032500000000     0.918700000000     0.0509493  
H        H      0.613500000000     0.880200000000     0.869000000000     0.0509493  
H        H      0.509100000000     0.910800000000     0.291000000000     0.0509493  
H        H      0.405600000000     0.857000000000     0.254600000000     0.0509493  
H        H      0.216800000000     0.963500000000     0.261300000000     0.0509493  
H        H      0.102300000000     0.469000000000     0.323000000000     0.0509493  
H        H      0.093500000000     0.443600000000     0.455000000000     0.0509493  
H        H      0.165100000000     0.272300000000     0.528500000000     0.0509493  
H        H      0.610400000000     0.136900000000     0.531500000000     0.0509493  
H        H      0.519700000000     0.283500000000     0.587500000000     0.0509493  
H        H      0.332400000000     0.426100000000     0.429300000000     0.0509493  
H        H      0.433200000000     0.275500000000     0.376700000000     0.0509493  
H        H      0.090500000000     0.633200000000     0.608800000000     0.0509493  
H        H      0.192100000000     0.491300000000     0.548700000000     0.0509493  
H        H      0.470200000000     0.467500000000     0.581300000000     0.0509493  
H        H      0.362700000000     0.619800000000     0.631000000000     0.0509493  
C        C      0.126200000000     0.584800000000     0.832200000000     0.0356728  
C        C      0.250500000000     0.549000000000     0.818200000000     0.0356728  
C        C      0.320300000000     0.453000000000     0.793400000000     0.0356728  
C        C      0.436000000000     0.420200000000     0.772200000000     0.0356728  
C        C      0.481100000000     0.483200000000     0.777600000000     0.0356728  
C        C      0.412100000000     0.575600000000     0.807200000000     0.0356728  
C        C      0.293700000000     0.611300000000     0.827500000000     0.0356728  
C        C      0.471000000000     0.633800000000     0.815200000000     0.0356728  
C        C      0.245900000000     0.836900000000     0.730900000000     0.0356728  
C        C      0.191200000000     0.812700000000     0.818100000000     0.0356728  
C        C      0.116200000000     0.900300000000     0.853100000000     0.0356728  
C        C      0.058100000000     0.885400000000     0.931800000000     0.0356728  
C        C      0.075400000000     0.782500000000     0.975900000000     0.0356728  
C        C      0.153600000000     0.693700000000     0.943100000000     0.0356728  
C        C      0.212900000000     0.707900000000     0.862900000000     0.0356728  
C        C      0.170900000000     0.583900000000     0.997100000000     0.0356728  
C        C      0.740000000000     0.696000000000     0.010800000000     0.0356728  
C        C      0.673000000000     0.783100000000     0.046300000000     0.0356728  
C        C      0.702700000000     0.868800000000     0.019200000000     0.0356728  
C        C      0.793000000000     0.867400000000     0.952200000000     0.0356728  
C        C      0.853600000000     0.776700000000     0.920500000000     0.0356728  
C        C      0.629200000000     0.100900000000     0.101900000000     0.0356728  
C        C      0.690100000000     0.014800000000     0.066400000000     0.0356728  
C        C      0.636100000000     0.962400000000     0.056600000000     0.0356728  
C        C      0.520800000000     0.001500000000     0.084100000000     0.0356728  
C        C      0.464600000000     0.091600000000     0.116200000000     0.0356728  
C        C      0.543200000000     0.915200000000     0.667800000000     0.0356728  
C        C      0.617700000000     0.951000000000     0.681800000000     0.0356728  
C        C      0.566700000000     0.047000000000     0.706600000000     0.0356728  
C        C      0.628400000000     0.079800000000     0.727800000000     0.0356728  
C        C      0.741900000000     0.016800000000     0.722400000000     0.0356728  
C        C      0.794900000000     0.924400000000     0.692800000000     0.0356728  
C        C      0.732500000000     0.888700000000     0.672500000000     0.0356728  
C        C      0.920000000000     0.866200000000     0.684800000000     0.0356728  
C        C      0.813700000000     0.663100000000     0.769100000000     0.0356728  
C        C      0.822000000000     0.687300000000     0.681900000000     0.0356728  
C        C      0.869600000000     0.599700000000     0.646900000000     0.0356728  
C        C      0.875300000000     0.614600000000     0.568200000000     0.0356728  
C        C      0.833800000000     0.717500000000     0.524100000000     0.0356728  
C        C      0.790400000000     0.806300000000     0.556900000000     0.0356728  
C        C      0.783700000000     0.792100000000     0.637100000000     0.0356728  
C        C      0.751900000000     0.916100000000     0.502900000000     0.0356728  
C        C      0.446800000000     0.804000000000     0.489200000000     0.0356728  
C        C      0.502400000000     0.716900000000     0.453700000000     0.0356728  
C        C      0.590700000000     0.631200000000     0.480800000000     0.0356728  
C        C      0.612600000000     0.632600000000     0.547800000000     0.0356728  
C        C      0.550800000000     0.723300000000     0.579500000000     0.0356728  
C        C      0.832000000000     0.399100000000     0.398100000000     0.0356728  
C        C      0.771300000000     0.485200000000     0.433600000000     0.0356728  
C        C      0.655100000000     0.537600000000     0.443400000000     0.0356728  
C        C      0.606400000000     0.498500000000     0.415900000000     0.0356728  
C        C      0.672400000000     0.408400000000     0.383800000000     0.0356728  
C        C      0.873800000000     0.415200000000     0.167800000000     0.0356728  
C        C      0.749500000000     0.451000000000     0.181800000000     0.0356728  
C        C      0.679700000000     0.547000000000     0.206600000000     0.0356728  
C        C      0.564000000000     0.579800000000     0.227800000000     0.0356728  
C        C      0.518900000000     0.516800000000     0.222400000000     0.0356728  
C        C      0.587900000000     0.424400000000     0.192800000000     0.0356728  
C        C      0.706300000000     0.388700000000     0.172500000000     0.0356728  
C        C      0.529000000000     0.366200000000     0.184800000000     0.0356728  
C        C      0.754100000000     0.163100000000     0.269100000000     0.0356728  
C        C      0.808800000000     0.187300000000     0.181900000000     0.0356728  
C        C      0.883800000000     0.099700000000     0.146900000000     0.0356728  
C        C      0.941900000000     0.114600000000     0.068200000000     0.0356728  
C        C      0.924600000000     0.217500000000     0.024100000000     0.0356728  
C        C      0.846400000000     0.306300000000     0.056900000000     0.0356728  
C        C      0.787100000000     0.292100000000     0.137100000000     0.0356728  
C        C      0.829100000000     0.416100000000     0.002900000000     0.0356728  
C        C      0.260000000000     0.304000000000     0.989200000000     0.0356728  
C        C      0.327000000000     0.216900000000     0.953700000000     0.0356728  
C        C      0.297300000000     0.131200000000     0.980800000000     0.0356728  
C        C      0.207000000000     0.132600000000     0.047800000000     0.0356728  
C        C      0.146400000000     0.223300000000     0.079500000000     0.0356728  
C        C      0.370800000000     0.899100000000     0.898100000000     0.0356728  
C        C      0.309900000000     0.985200000000     0.933600000000     0.0356728  
C        C      0.363900000000     0.037600000000     0.943400000000     0.0356728  
C        C      0.479200000000     0.998500000000     0.915900000000     0.0356728  
C        C      0.535400000000     0.908400000000     0.883800000000     0.0356728  
C        C      0.456800000000     0.084800000000     0.332200000000     0.0356728  
C        C      0.382300000000     0.049000000000     0.318200000000     0.0356728  
C        C      0.433300000000     0.953000000000     0.293400000000     0.0356728  
C        C      0.371600000000     0.920200000000     0.272200000000     0.0356728  
C        C      0.258100000000     0.983200000000     0.277600000000     0.0356728  
C        C      0.205100000000     0.075600000000     0.307200000000     0.0356728  
C        C      0.267500000000     0.111300000000     0.327500000000     0.0356728  
C        C      0.080000000000     0.133800000000     0.315200000000     0.0356728  
C        C      0.186300000000     0.336900000000     0.230900000000     0.0356728  
C        C      0.178000000000     0.312700000000     0.318100000000     0.0356728  
C        C      0.130400000000     0.400300000000     0.353100000000     0.0356728  
C        C      0.124700000000     0.385400000000     0.431800000000     0.0356728  
C        C      0.166200000000     0.282500000000     0.475900000000     0.0356728  
C        C      0.209600000000     0.193700000000     0.443100000000     0.0356728  
C        C      0.216300000000     0.207900000000     0.362900000000     0.0356728  
C        C      0.248100000000     0.083900000000     0.497100000000     0.0356728  
C        C      0.553200000000     0.196000000000     0.510800000000     0.0356728  
C        C      0.497600000000     0.283100000000     0.546300000000     0.0356728  
C        C      0.409300000000     0.368800000000     0.519200000000     0.0356728  
C        C      0.387400000000     0.367400000000     0.452200000000     0.0356728  
C        C      0.449200000000     0.276700000000     0.420500000000     0.0356728  
C        C      0.168000000000     0.600900000000     0.601900000000     0.0356728  
C        C      0.228700000000     0.514800000000     0.566400000000     0.0356728  
C        C      0.344900000000     0.462400000000     0.556600000000     0.0356728  
C        C      0.393600000000     0.501500000000     0.584100000000     0.0356728  
C        C      0.327600000000     0.591600000000     0.616200000000     0.0356728  
N        N      0.828100000000     0.690900000000     0.950100000000    -0.160175   
N        N      0.517400000000     0.139600000000     0.127000000000    -0.160175   
N        N      0.469100000000     0.809100000000     0.549900000000    -0.160175   
N        N      0.784000000000     0.360400000000     0.373000000000    -0.160175   
N        N      0.171900000000     0.309100000000     0.049900000000    -0.160175   
N        N      0.482600000000     0.860400000000     0.873000000000    -0.160175   
N        N      0.530900000000     0.190900000000     0.450100000000    -0.160175   
N        N      0.216000000000     0.639600000000     0.627000000000    -0.160175   
O        O      0.082500000000     0.521200000000     0.881200000000    -0.279612   
O        O      0.071410000000     0.674080000000     0.795700000000    -0.279612   
O        O      0.245730000000     0.792740000000     0.683800000000    -0.279612   
O        O      0.287560000000     0.905380000000     0.709100000000    -0.279612   
O        O      0.573000000000     0.609300000000     0.782700000000    -0.279612   
O        O      0.416800000000     0.703500000000     0.854900000000    -0.279612   
O        O      0.264600000000     0.512100000000     0.993900000000    -0.279612   
O        O      0.078200000000     0.576800000000     0.043000000000    -0.279612   
O        O      0.484900000000     0.978800000000     0.618800000000    -0.279612   
O        O      0.541190000000     0.825920000000     0.704300000000    -0.279612   
O        O      0.722270000000     0.707260000000     0.816200000000    -0.279612   
O        O      0.902040000000     0.594620000000     0.790900000000    -0.279612   
O        O      0.965000000000     0.890700000000     0.717300000000    -0.279612   
O        O      0.975200000000     0.796500000000     0.645100000000    -0.279612   
O        O      0.770600000000     0.987900000000     0.506100000000    -0.279612   
O        O      0.698000000000     0.923200000000     0.457000000000    -0.279612   
O        O      0.917500000000     0.478800000000     0.118800000000    -0.279612   
O        O      0.928590000000     0.325920000000     0.204300000000    -0.279612   
O        O      0.754270000000     0.207260000000     0.316200000000    -0.279612   
O        O      0.712440000000     0.094620000000     0.290900000000    -0.279612   
O        O      0.427000000000     0.390700000000     0.217300000000    -0.279612   
O        O      0.583200000000     0.296500000000     0.145100000000    -0.279612   
O        O      0.735400000000     0.487900000000     0.006100000000    -0.279612   
O        O      0.921800000000     0.423200000000     0.957000000000    -0.279612   
O        O      0.515100000000     0.021200000000     0.381200000000    -0.279612   
O        O      0.458810000000     0.174080000000     0.295700000000    -0.279612   
O        O      0.277730000000     0.292740000000     0.183800000000    -0.279612   
O        O      0.097960000000     0.405380000000     0.209100000000    -0.279612   
O        O      0.035000000000     0.109300000000     0.282700000000    -0.279612   
O        O      0.024800000000     0.203500000000     0.354900000000    -0.279612   
O        O      0.229400000000     0.012100000000     0.493900000000    -0.279612   
O        O      0.302000000000     0.076800000000     0.543000000000    -0.279612   


