data_UBACUX_original

_audit_creation_method RASPA-1.0
_audit_creation_date 2022-1-29
_audit_author_name 'Felipe Lopes de Oliveira <felipe.lopes.oliveira@ibm.com>'

_cell_length_a    13.921
_cell_length_b    16.5104
_cell_length_c    18.994
_cell_angle_alpha 113.254
_cell_angle_beta  90
_cell_angle_gamma 114.934
_cell_volume      3563.79

_symmetry_cell_setting          triclinic
_symmetry_space_group_name_Hall 'P 1'
_symmetry_space_group_name_H-M  'P 1'
_symmetry_Int_Tables_number     1

_symmetry_equiv_pos_as_xyz 'x,y,z'

loop_
_atom_site_label
_atom_site_type_symbol
_atom_site_fract_x
_atom_site_fract_y
_atom_site_fract_z
_atom_site_charge
Zn       Zn     0.080950000000     0.469520000000     0.897680000000     0.45659    
Zn       Zn     0.558650000000     0.434740000000     0.160640000000     0.45659    
Zn       Zn     0.611430000000     0.530480000000     0.602320000000     0.45659    
Zn       Zn     0.123910000000     0.565260000000     0.339360000000     0.45659    
Zn       Zn     0.919050000000     0.530480000000     0.102320000000     0.45659    
Zn       Zn     0.441350000000     0.565260000000     0.839360000000     0.45659    
Zn       Zn     0.388570000000     0.469520000000     0.397680000000     0.45659    
Zn       Zn     0.876090000000     0.434740000000     0.660640000000     0.45659    
H        H      0.486100000000     0.761000000000     0.716500000000     0.0569703  
H        H      0.363100000000     0.824800000000     0.736400000000     0.0569703  
H        H      0.182300000000     0.720400000000     0.713100000000     0.0569703  
H        H      0.155100000000     0.262600000000     0.696000000000     0.0569703  
H        H      0.163400000000     0.175200000000     0.567200000000     0.0569703  
H        H      0.220600000000     0.256400000000     0.489000000000     0.0569703  
H        H      0.210500000000     0.650400000000     0.043900000000     0.0569703  
H        H      0.294100000000     0.821400000000     0.088900000000     0.0569703  
H        H      0.193100000000     0.785200000000     0.879500000000     0.0569703  
H        H      0.098200000000     0.616800000000     0.842600000000     0.0569703  
H        H      0.338700000000     0.278800000000     0.157000000000     0.0569703  
H        H      0.246900000000     0.112600000000     0.121500000000     0.0569703  
H        H      0.502800000000     0.082600000000     0.055100000000     0.0569703  
H        H      0.597600000000     0.254800000000     0.094000000000     0.0569703  
H        H      0.725100000000     0.239000000000     0.783500000000     0.0569703  
H        H      0.538300000000     0.175200000000     0.763600000000     0.0569703  
H        H      0.461900000000     0.279600000000     0.786900000000     0.0569703  
H        H      0.892500000000     0.737400000000     0.804000000000     0.0569703  
H        H      0.988200000000     0.824800000000     0.932800000000     0.0569703  
H        H      0.964200000000     0.743600000000     0.011000000000     0.0569703  
H        H      0.560100000000     0.349600000000     0.456100000000     0.0569703  
H        H      0.472700000000     0.178600000000     0.411100000000     0.0569703  
H        H      0.407900000000     0.214800000000     0.620500000000     0.0569703  
H        H      0.481400000000     0.383200000000     0.657400000000     0.0569703  
H        H      0.059900000000     0.721200000000     0.343000000000     0.0569703  
H        H      0.134300000000     0.887400000000     0.378500000000     0.0569703  
H        H      0.420200000000     0.917400000000     0.444900000000     0.0569703  
H        H      0.342800000000     0.745200000000     0.406000000000     0.0569703  
H        H      0.513900000000     0.239000000000     0.283500000000     0.0569703  
H        H      0.636900000000     0.175200000000     0.263600000000     0.0569703  
H        H      0.817700000000     0.279600000000     0.286900000000     0.0569703  
H        H      0.844900000000     0.737400000000     0.304000000000     0.0569703  
H        H      0.836600000000     0.824800000000     0.432800000000     0.0569703  
H        H      0.779400000000     0.743600000000     0.511000000000     0.0569703  
H        H      0.789500000000     0.349600000000     0.956100000000     0.0569703  
H        H      0.705900000000     0.178600000000     0.911100000000     0.0569703  
H        H      0.806900000000     0.214800000000     0.120500000000     0.0569703  
H        H      0.901800000000     0.383200000000     0.157400000000     0.0569703  
H        H      0.661300000000     0.721200000000     0.843000000000     0.0569703  
H        H      0.753100000000     0.887400000000     0.878500000000     0.0569703  
H        H      0.497200000000     0.917400000000     0.944900000000     0.0569703  
H        H      0.402400000000     0.745200000000     0.906000000000     0.0569703  
H        H      0.274900000000     0.761000000000     0.216500000000     0.0569703  
H        H      0.461700000000     0.824800000000     0.236400000000     0.0569703  
H        H      0.538100000000     0.720400000000     0.213100000000     0.0569703  
H        H      0.107500000000     0.262600000000     0.196000000000     0.0569703  
H        H      0.011800000000     0.175200000000     0.067200000000     0.0569703  
H        H      0.035800000000     0.256400000000     0.989000000000     0.0569703  
H        H      0.439900000000     0.650400000000     0.543900000000     0.0569703  
H        H      0.527300000000     0.821400000000     0.588900000000     0.0569703  
H        H      0.592100000000     0.785200000000     0.379500000000     0.0569703  
H        H      0.518600000000     0.616800000000     0.342600000000     0.0569703  
H        H      0.940100000000     0.278800000000     0.657000000000     0.0569703  
H        H      0.865700000000     0.112600000000     0.621500000000     0.0569703  
H        H      0.579800000000     0.082600000000     0.555100000000     0.0569703  
H        H      0.657200000000     0.254800000000     0.594000000000     0.0569703  
C        C      0.455500000000     0.577800000000     0.681000000000     0.0392571  
C        C      0.380000000000     0.620600000000     0.691000000000     0.0392571  
C        C      0.413200000000     0.719200000000     0.710200000000     0.0392571  
C        C      0.339200000000     0.757200000000     0.720400000000     0.0392571  
C        C      0.231600000000     0.695000000000     0.706700000000     0.0392571  
C        C      0.194300000000     0.593800000000     0.683400000000     0.0392571  
C        C      0.266800000000     0.554800000000     0.675500000000     0.0392571  
C        C      0.073100000000     0.529200000000     0.667400000000     0.0392571  
C        C      0.203200000000     0.448200000000     0.777100000000     0.0392571  
C        C      0.207100000000     0.394600000000     0.694600000000     0.0392571  
C        C      0.178000000000     0.295400000000     0.664400000000     0.0392571  
C        C      0.182000000000     0.242200000000     0.586700000000     0.0392571  
C        C      0.214000000000     0.290400000000     0.539600000000     0.0392571  
C        C      0.236500000000     0.389800000000     0.566900000000     0.0392571  
C        C      0.234700000000     0.443800000000     0.645800000000     0.0392571  
C        C      0.268300000000     0.435600000000     0.510400000000     0.0392571  
C        C      0.204700000000     0.677400000000     0.010400000000     0.0392571  
C        C      0.255600000000     0.780400000000     0.037700000000     0.0392571  
C        C      0.248600000000     0.820200000000     0.988900000000     0.0392571  
C        C      0.194800000000     0.759800000000     0.915000000000     0.0392571  
C        C      0.141200000000     0.658200000000     0.892400000000     0.0392571  
C        C      0.373500000000     0.239800000000     0.136600000000     0.0392571  
C        C      0.317600000000     0.139800000000     0.114300000000     0.0392571  
C        C      0.364400000000     0.080400000000     0.082000000000     0.0392571  
C        C      0.468400000000     0.122000000000     0.075400000000     0.0392571  
C        C      0.526000000000     0.226400000000     0.099400000000     0.0392571  
C        C      0.877700000000     0.422200000000     0.819000000000     0.0392571  
C        C      0.759400000000     0.379400000000     0.809000000000     0.0392571  
C        C      0.694000000000     0.280800000000     0.789800000000     0.0392571  
C        C      0.582000000000     0.242800000000     0.779600000000     0.0392571  
C        C      0.536600000000     0.305000000000     0.793300000000     0.0392571  
C        C      0.600500000000     0.406200000000     0.816600000000     0.0392571  
C        C      0.712000000000     0.445200000000     0.824500000000     0.0392571  
C        C      0.543900000000     0.470800000000     0.832600000000     0.0392571  
C        C      0.755000000000     0.551800000000     0.722900000000     0.0392571  
C        C      0.812500000000     0.605400000000     0.805400000000     0.0392571  
C        C      0.882600000000     0.704600000000     0.835600000000     0.0392571  
C        C      0.939800000000     0.757800000000     0.913300000000     0.0392571  
C        C      0.923600000000     0.709600000000     0.960400000000     0.0392571  
C        C      0.846700000000     0.610200000000     0.933100000000     0.0392571  
C        C      0.790900000000     0.556200000000     0.854200000000     0.0392571  
C        C      0.832700000000     0.564400000000     0.989600000000     0.0392571  
C        C      0.527300000000     0.322600000000     0.489600000000     0.0392571  
C        C      0.475200000000     0.219600000000     0.462300000000     0.0392571  
C        C      0.428400000000     0.179800000000     0.511100000000     0.0392571  
C        C      0.435000000000     0.240200000000     0.585000000000     0.0392571  
C        C      0.483000000000     0.341800000000     0.607600000000     0.0392571  
C        C      0.133700000000     0.760200000000     0.363400000000     0.0392571  
C        C      0.177800000000     0.860200000000     0.385700000000     0.0392571  
C        C      0.284000000000     0.919600000000     0.418000000000     0.0392571  
C        C      0.346400000000     0.878000000000     0.424600000000     0.0392571  
C        C      0.299600000000     0.773600000000     0.400600000000     0.0392571  
C        C      0.544500000000     0.422200000000     0.319000000000     0.0392571  
C        C      0.620000000000     0.379400000000     0.309000000000     0.0392571  
C        C      0.586800000000     0.280800000000     0.289800000000     0.0392571  
C        C      0.660800000000     0.242800000000     0.279600000000     0.0392571  
C        C      0.768400000000     0.305000000000     0.293300000000     0.0392571  
C        C      0.805700000000     0.406200000000     0.316600000000     0.0392571  
C        C      0.733200000000     0.445200000000     0.324500000000     0.0392571  
C        C      0.926900000000     0.470800000000     0.332600000000     0.0392571  
C        C      0.796800000000     0.551800000000     0.222900000000     0.0392571  
C        C      0.792900000000     0.605400000000     0.305400000000     0.0392571  
C        C      0.822000000000     0.704600000000     0.335600000000     0.0392571  
C        C      0.818000000000     0.757800000000     0.413300000000     0.0392571  
C        C      0.786000000000     0.709600000000     0.460400000000     0.0392571  
C        C      0.763500000000     0.610200000000     0.433100000000     0.0392571  
C        C      0.765300000000     0.556200000000     0.354200000000     0.0392571  
C        C      0.731700000000     0.564400000000     0.489600000000     0.0392571  
C        C      0.795300000000     0.322600000000     0.989600000000     0.0392571  
C        C      0.744400000000     0.219600000000     0.962300000000     0.0392571  
C        C      0.751400000000     0.179800000000     0.011100000000     0.0392571  
C        C      0.805200000000     0.240200000000     0.085000000000     0.0392571  
C        C      0.858800000000     0.341800000000     0.107600000000     0.0392571  
C        C      0.626500000000     0.760200000000     0.863400000000     0.0392571  
C        C      0.682400000000     0.860200000000     0.885700000000     0.0392571  
C        C      0.635600000000     0.919600000000     0.918000000000     0.0392571  
C        C      0.531600000000     0.878000000000     0.924600000000     0.0392571  
C        C      0.474000000000     0.773600000000     0.900600000000     0.0392571  
C        C      0.122300000000     0.577800000000     0.181000000000     0.0392571  
C        C      0.240600000000     0.620600000000     0.191000000000     0.0392571  
C        C      0.306000000000     0.719200000000     0.210200000000     0.0392571  
C        C      0.418000000000     0.757200000000     0.220400000000     0.0392571  
C        C      0.463400000000     0.695000000000     0.206700000000     0.0392571  
C        C      0.399500000000     0.593800000000     0.183400000000     0.0392571  
C        C      0.288000000000     0.554800000000     0.175500000000     0.0392571  
C        C      0.456100000000     0.529200000000     0.167400000000     0.0392571  
C        C      0.245000000000     0.448200000000     0.277100000000     0.0392571  
C        C      0.187500000000     0.394600000000     0.194600000000     0.0392571  
C        C      0.117400000000     0.295400000000     0.164400000000     0.0392571  
C        C      0.060200000000     0.242200000000     0.086700000000     0.0392571  
C        C      0.076400000000     0.290400000000     0.039600000000     0.0392571  
C        C      0.153300000000     0.389800000000     0.066900000000     0.0392571  
C        C      0.209100000000     0.443800000000     0.145800000000     0.0392571  
C        C      0.167300000000     0.435600000000     0.010400000000     0.0392571  
C        C      0.472700000000     0.677400000000     0.510400000000     0.0392571  
C        C      0.524800000000     0.780400000000     0.537700000000     0.0392571  
C        C      0.571600000000     0.820200000000     0.488900000000     0.0392571  
C        C      0.565000000000     0.759800000000     0.415000000000     0.0392571  
C        C      0.517000000000     0.658200000000     0.392400000000     0.0392571  
C        C      0.866300000000     0.239800000000     0.636600000000     0.0392571  
C        C      0.822200000000     0.139800000000     0.614300000000     0.0392571  
C        C      0.716000000000     0.080400000000     0.582000000000     0.0392571  
C        C      0.653600000000     0.122000000000     0.575400000000     0.0392571  
C        C      0.700400000000     0.226400000000     0.599400000000     0.0392571  
N        N      0.148620000000     0.617520000000     0.938580000000    -0.13873    
N        N      0.304580000000     0.924460000000     0.009110000000    -0.13873    
N        N      0.300400000000     0.975060000000     0.060670000000    -0.13873    
N        N      0.477720000000     0.284140000000     0.129890000000    -0.13873    
N        N      0.531100000000     0.382480000000     0.561420000000    -0.13873    
N        N      0.380120000000     0.075540000000     0.490890000000    -0.13873    
N        N      0.325340000000     0.024940000000     0.439330000000    -0.13873    
N        N      0.193580000000     0.715860000000     0.370110000000    -0.13873    
N        N      0.851380000000     0.382480000000     0.061420000000    -0.13873    
N        N      0.695420000000     0.075540000000     0.990890000000    -0.13873    
N        N      0.699600000000     0.024940000000     0.939330000000    -0.13873    
N        N      0.522280000000     0.715860000000     0.870110000000    -0.13873    
N        N      0.468900000000     0.617520000000     0.438580000000    -0.13873    
N        N      0.619880000000     0.924460000000     0.509110000000    -0.13873    
N        N      0.674660000000     0.975060000000     0.560670000000    -0.13873    
N        N      0.806420000000     0.284140000000     0.629890000000    -0.13873    
O        O      0.514330000000     0.590400000000     0.630030000000    -0.272066   
O        O      0.466160000000     0.536440000000     0.721370000000    -0.272066   
O        O      0.282210000000     0.529740000000     0.822710000000    -0.272066   
O        O      0.118420000000     0.404380000000     0.799580000000    -0.272066   
O        O      0.011140000000     0.570600000000     0.681500000000    -0.272066   
O        O      0.034200000000     0.437620000000     0.641850000000    -0.272066   
O        O      0.223290000000     0.485960000000     0.505240000000    -0.272066   
O        O      0.334530000000     0.415560000000     0.470970000000    -0.272066   
O        O      0.923930000000     0.409600000000     0.869970000000    -0.272066   
O        O      0.929720000000     0.463560000000     0.778630000000    -0.272066   
O        O      0.752470000000     0.470260000000     0.677290000000    -0.272066   
O        O      0.714040000000     0.595620000000     0.700420000000    -0.272066   
O        O      0.440540000000     0.429400000000     0.818500000000    -0.272066   
O        O      0.596580000000     0.562380000000     0.858150000000    -0.272066   
O        O      0.737330000000     0.514040000000     0.994760000000    -0.272066   
O        O      0.918970000000     0.584440000000     0.029030000000    -0.272066   
O        O      0.485670000000     0.409600000000     0.369970000000    -0.272066   
O        O      0.533840000000     0.463560000000     0.278630000000    -0.272066   
O        O      0.717790000000     0.470260000000     0.177290000000    -0.272066   
O        O      0.881580000000     0.595620000000     0.200420000000    -0.272066   
O        O      0.988860000000     0.429400000000     0.318500000000    -0.272066   
O        O      0.965800000000     0.562380000000     0.358150000000    -0.272066   
O        O      0.776710000000     0.514040000000     0.494760000000    -0.272066   
O        O      0.665470000000     0.584440000000     0.529030000000    -0.272066   
O        O      0.076070000000     0.590400000000     0.130030000000    -0.272066   
O        O      0.070280000000     0.536440000000     0.221370000000    -0.272066   
O        O      0.247530000000     0.529740000000     0.322710000000    -0.272066   
O        O      0.285960000000     0.404380000000     0.299580000000    -0.272066   
O        O      0.559460000000     0.570600000000     0.181500000000    -0.272066   
O        O      0.403420000000     0.437620000000     0.141850000000    -0.272066   
O        O      0.262670000000     0.485960000000     0.005240000000    -0.272066   
O        O      0.081030000000     0.415560000000     0.970970000000    -0.272066   


