data_UBUMAH_original

_audit_creation_method RASPA-1.0
_audit_creation_date 2022-1-31
_audit_author_name 'Felipe Lopes de Oliveira <felipe.lopes.oliveira@ibm.com>'

_cell_length_a    11.2949
_cell_length_b    21.312
_cell_length_c    29.097
_cell_angle_alpha 90
_cell_angle_beta  90
_cell_angle_gamma 90
_cell_volume      7004.14

_symmetry_cell_setting          triclinic
_symmetry_space_group_name_Hall 'P 1'
_symmetry_space_group_name_H-M  'P 1'
_symmetry_Int_Tables_number     1

_symmetry_equiv_pos_as_xyz 'x,y,z'

loop_
_atom_site_label
_atom_site_type_symbol
_atom_site_fract_x
_atom_site_fract_y
_atom_site_fract_z
_atom_site_charge
Zn       Zn     0.616240000000     0.835500000000     0.674380000000     0.442565   
Zn       Zn     0.758180000000     0.900750000000     0.759380000000     0.442565   
Zn       Zn     0.485270000000     0.895140000000     0.760890000000     0.442565   
Zn       Zn     0.654030000000     0.984150000000     0.685610000000     0.442565   
Zn       Zn     0.383760000000     0.164500000000     0.174380000000     0.442565   
Zn       Zn     0.241820000000     0.099250000000     0.259380000000     0.442565   
Zn       Zn     0.514730000000     0.104860000000     0.260890000000     0.442565   
Zn       Zn     0.345970000000     0.015850000000     0.185610000000     0.442565   
Zn       Zn     0.883760000000     0.335500000000     0.674380000000     0.442565   
Zn       Zn     0.741820000000     0.400750000000     0.759380000000     0.442565   
Zn       Zn     0.014730000000     0.395140000000     0.760890000000     0.442565   
Zn       Zn     0.845970000000     0.484150000000     0.685610000000     0.442565   
Zn       Zn     0.116240000000     0.664500000000     0.174380000000     0.442565   
Zn       Zn     0.258180000000     0.599250000000     0.259380000000     0.442565   
Zn       Zn     0.985270000000     0.604860000000     0.260890000000     0.442565   
Zn       Zn     0.154030000000     0.515850000000     0.185610000000     0.442565   
H        H      0.879400000000     0.997500000000     0.559800000000     0.0625653  
H        H      0.974700000000     0.977700000000     0.489400000000     0.0625653  
H        H      0.816600000000     0.811700000000     0.482800000000     0.0625653  
H        H      0.704600000000     0.833800000000     0.549300000000     0.0625653  
H        H      0.089500000000     0.953700000000     0.342600000000     0.0625653  
H        H      0.171800000000     0.846000000000     0.231700000000     0.0625653  
H        H      0.979500000000     0.777700000000     0.340900000000     0.0625653  
H        H      0.296800000000     0.688100000000     0.391000000000     0.0625653  
H        H      0.291300000000     0.722700000000     0.464200000000     0.0625653  
H        H      0.949300000000     0.688000000000     0.469100000000     0.0625653  
H        H      0.956700000000     0.652500000000     0.393700000000     0.0625653  
H        H      0.292700000000     0.803000000000     0.605900000000     0.0625653  
H        H      0.118900000000     0.865100000000     0.715900000000     0.0625653  
H        H      0.940100000000     0.800200000000     0.607600000000     0.0625653  
H        H      0.120600000000     0.002500000000     0.059800000000     0.0625653  
H        H      0.025300000000     0.022300000000     0.989400000000     0.0625653  
H        H      0.183400000000     0.188300000000     0.982800000000     0.0625653  
H        H      0.295400000000     0.166200000000     0.049300000000     0.0625653  
H        H      0.910500000000     0.046300000000     0.842600000000     0.0625653  
H        H      0.828200000000     0.154000000000     0.731700000000     0.0625653  
H        H      0.020500000000     0.222300000000     0.840900000000     0.0625653  
H        H      0.703200000000     0.311900000000     0.891000000000     0.0625653  
H        H      0.708700000000     0.277300000000     0.964200000000     0.0625653  
H        H      0.050700000000     0.312000000000     0.969100000000     0.0625653  
H        H      0.043300000000     0.347500000000     0.893700000000     0.0625653  
H        H      0.707300000000     0.197000000000     0.105900000000     0.0625653  
H        H      0.881100000000     0.134900000000     0.215900000000     0.0625653  
H        H      0.059900000000     0.199800000000     0.107600000000     0.0625653  
H        H      0.620600000000     0.497500000000     0.559800000000     0.0625653  
H        H      0.525300000000     0.477700000000     0.489400000000     0.0625653  
H        H      0.683400000000     0.311700000000     0.482800000000     0.0625653  
H        H      0.795400000000     0.333800000000     0.549300000000     0.0625653  
H        H      0.410500000000     0.453700000000     0.342600000000     0.0625653  
H        H      0.328200000000     0.346000000000     0.231700000000     0.0625653  
H        H      0.520500000000     0.277700000000     0.340900000000     0.0625653  
H        H      0.203200000000     0.188100000000     0.391000000000     0.0625653  
H        H      0.208700000000     0.222700000000     0.464200000000     0.0625653  
H        H      0.550700000000     0.188000000000     0.469100000000     0.0625653  
H        H      0.543300000000     0.152500000000     0.393700000000     0.0625653  
H        H      0.207300000000     0.303000000000     0.605900000000     0.0625653  
H        H      0.381100000000     0.365100000000     0.715900000000     0.0625653  
H        H      0.559900000000     0.300200000000     0.607600000000     0.0625653  
H        H      0.379400000000     0.502500000000     0.059800000000     0.0625653  
H        H      0.474700000000     0.522300000000     0.989400000000     0.0625653  
H        H      0.316600000000     0.688300000000     0.982800000000     0.0625653  
H        H      0.204600000000     0.666200000000     0.049300000000     0.0625653  
H        H      0.589500000000     0.546300000000     0.842600000000     0.0625653  
H        H      0.671800000000     0.654000000000     0.731700000000     0.0625653  
H        H      0.479500000000     0.722300000000     0.840900000000     0.0625653  
H        H      0.796800000000     0.811900000000     0.891000000000     0.0625653  
H        H      0.791300000000     0.777300000000     0.964200000000     0.0625653  
H        H      0.449300000000     0.812000000000     0.969100000000     0.0625653  
H        H      0.456700000000     0.847500000000     0.893700000000     0.0625653  
H        H      0.792700000000     0.697000000000     0.105900000000     0.0625653  
H        H      0.618900000000     0.634900000000     0.215900000000     0.0625653  
H        H      0.440100000000     0.699800000000     0.107600000000     0.0625653  
C        C      0.717700000000     0.929300000000     0.605300000000     0.0335629  
C        C      0.781700000000     0.915000000000     0.560600000000     0.0335629  
C        C      0.864600000000     0.960700000000     0.543600000000     0.0335629  
C        C      0.923000000000     0.948000000000     0.501500000000     0.0335629  
C        C      0.904300000000     0.891100000000     0.477500000000     0.0335629  
C        C      0.827300000000     0.850300000000     0.497100000000     0.0335629  
C        C      0.760500000000     0.862300000000     0.538600000000     0.0335629  
C        C      0.950200000000     0.884800000000     0.431800000000     0.0335629  
C        C      0.989100000000     0.875100000000     0.396500000000     0.0335629  
C        C      0.044900000000     0.866000000000     0.350600000000     0.0335629  
C        C      0.091100000000     0.914500000000     0.328600000000     0.0335629  
C        C      0.142800000000     0.908800000000     0.284500000000     0.0335629  
C        C      0.136400000000     0.851200000000     0.260300000000     0.0335629  
C        C      0.073300000000     0.801700000000     0.282000000000     0.0335629  
C        C      0.024000000000     0.809400000000     0.327400000000     0.0335629  
C        C      0.195300000000     0.965900000000     0.262100000000     0.0335629  
C        C      0.065600000000     0.740310000000     0.258200000000     0.0335629  
C        C      0.137600000000     0.632600000000     0.340700000000     0.0335629  
C        C      0.132800000000     0.658900000000     0.386900000000     0.0335629  
C        C      0.225600000000     0.686400000000     0.407000000000     0.0335629  
C        C      0.220900000000     0.712000000000     0.449600000000     0.0335629  
C        C      0.121100000000     0.722100000000     0.470800000000     0.0335629  
C        C      0.018900000000     0.690900000000     0.452100000000     0.0335629  
C        C      0.025500000000     0.665400000000     0.408500000000     0.0335629  
C        C      0.112200000000     0.751100000000     0.514800000000     0.0335629  
C        C      0.113500000000     0.768900000000     0.553700000000     0.0335629  
C        C      0.118000000000     0.795700000000     0.599900000000     0.0335629  
C        C      0.221600000000     0.810100000000     0.621100000000     0.0335629  
C        C      0.223400000000     0.834600000000     0.664100000000     0.0335629  
C        C      0.116600000000     0.847300000000     0.686800000000     0.0335629  
C        C      0.007600000000     0.834100000000     0.667100000000     0.0335629  
C        C      0.011100000000     0.808700000000     0.622600000000     0.0335629  
C        C      0.342200000000     0.852100000000     0.686600000000     0.0335629  
C        C      0.901600000000     0.843500000000     0.689500000000     0.0335629  
C        C      0.282300000000     0.070700000000     0.105300000000     0.0335629  
C        C      0.218300000000     0.085000000000     0.060600000000     0.0335629  
C        C      0.135400000000     0.039300000000     0.043600000000     0.0335629  
C        C      0.077000000000     0.052000000000     0.001500000000     0.0335629  
C        C      0.095700000000     0.108900000000     0.977500000000     0.0335629  
C        C      0.172700000000     0.149700000000     0.997100000000     0.0335629  
C        C      0.239500000000     0.137700000000     0.038600000000     0.0335629  
C        C      0.049800000000     0.115200000000     0.931800000000     0.0335629  
C        C      0.010900000000     0.124900000000     0.896500000000     0.0335629  
C        C      0.955100000000     0.134000000000     0.850600000000     0.0335629  
C        C      0.908900000000     0.085500000000     0.828600000000     0.0335629  
C        C      0.857200000000     0.091200000000     0.784500000000     0.0335629  
C        C      0.863600000000     0.148800000000     0.760300000000     0.0335629  
C        C      0.926700000000     0.198300000000     0.782000000000     0.0335629  
C        C      0.976000000000     0.190600000000     0.827400000000     0.0335629  
C        C      0.804700000000     0.034100000000     0.762100000000     0.0335629  
C        C      0.934400000000     0.259690000000     0.758200000000     0.0335629  
C        C      0.862400000000     0.367400000000     0.840700000000     0.0335629  
C        C      0.867200000000     0.341100000000     0.886900000000     0.0335629  
C        C      0.774400000000     0.313600000000     0.907000000000     0.0335629  
C        C      0.779100000000     0.288000000000     0.949600000000     0.0335629  
C        C      0.878900000000     0.277900000000     0.970800000000     0.0335629  
C        C      0.981100000000     0.309100000000     0.952100000000     0.0335629  
C        C      0.974500000000     0.334600000000     0.908500000000     0.0335629  
C        C      0.887800000000     0.248900000000     0.014800000000     0.0335629  
C        C      0.886500000000     0.231100000000     0.053700000000     0.0335629  
C        C      0.882000000000     0.204300000000     0.099900000000     0.0335629  
C        C      0.778400000000     0.189900000000     0.121100000000     0.0335629  
C        C      0.776600000000     0.165400000000     0.164100000000     0.0335629  
C        C      0.883400000000     0.152700000000     0.186800000000     0.0335629  
C        C      0.992400000000     0.165900000000     0.167100000000     0.0335629  
C        C      0.988900000000     0.191300000000     0.122600000000     0.0335629  
C        C      0.657800000000     0.147900000000     0.186600000000     0.0335629  
C        C      0.098400000000     0.156500000000     0.189500000000     0.0335629  
C        C      0.782300000000     0.429300000000     0.605300000000     0.0335629  
C        C      0.718300000000     0.415000000000     0.560600000000     0.0335629  
C        C      0.635400000000     0.460700000000     0.543600000000     0.0335629  
C        C      0.577000000000     0.448000000000     0.501500000000     0.0335629  
C        C      0.595700000000     0.391100000000     0.477500000000     0.0335629  
C        C      0.672700000000     0.350300000000     0.497100000000     0.0335629  
C        C      0.739500000000     0.362300000000     0.538600000000     0.0335629  
C        C      0.549800000000     0.384800000000     0.431800000000     0.0335629  
C        C      0.510900000000     0.375100000000     0.396500000000     0.0335629  
C        C      0.455100000000     0.366000000000     0.350600000000     0.0335629  
C        C      0.408900000000     0.414500000000     0.328600000000     0.0335629  
C        C      0.357200000000     0.408800000000     0.284500000000     0.0335629  
C        C      0.363600000000     0.351200000000     0.260300000000     0.0335629  
C        C      0.426700000000     0.301700000000     0.282000000000     0.0335629  
C        C      0.476000000000     0.309400000000     0.327400000000     0.0335629  
C        C      0.304700000000     0.465900000000     0.262100000000     0.0335629  
C        C      0.434400000000     0.240310000000     0.258200000000     0.0335629  
C        C      0.362400000000     0.132600000000     0.340700000000     0.0335629  
C        C      0.367200000000     0.158900000000     0.386900000000     0.0335629  
C        C      0.274400000000     0.186400000000     0.407000000000     0.0335629  
C        C      0.279100000000     0.212000000000     0.449600000000     0.0335629  
C        C      0.378900000000     0.222100000000     0.470800000000     0.0335629  
C        C      0.481100000000     0.190900000000     0.452100000000     0.0335629  
C        C      0.474500000000     0.165400000000     0.408500000000     0.0335629  
C        C      0.387800000000     0.251100000000     0.514800000000     0.0335629  
C        C      0.386500000000     0.268900000000     0.553700000000     0.0335629  
C        C      0.382000000000     0.295700000000     0.599900000000     0.0335629  
C        C      0.278400000000     0.310100000000     0.621100000000     0.0335629  
C        C      0.276600000000     0.334600000000     0.664100000000     0.0335629  
C        C      0.383400000000     0.347300000000     0.686800000000     0.0335629  
C        C      0.492400000000     0.334100000000     0.667100000000     0.0335629  
C        C      0.488900000000     0.308700000000     0.622600000000     0.0335629  
C        C      0.157800000000     0.352100000000     0.686600000000     0.0335629  
C        C      0.598400000000     0.343500000000     0.689500000000     0.0335629  
C        C      0.217700000000     0.570700000000     0.105300000000     0.0335629  
C        C      0.281700000000     0.585000000000     0.060600000000     0.0335629  
C        C      0.364600000000     0.539300000000     0.043600000000     0.0335629  
C        C      0.423000000000     0.552000000000     0.001500000000     0.0335629  
C        C      0.404300000000     0.608900000000     0.977500000000     0.0335629  
C        C      0.327300000000     0.649700000000     0.997100000000     0.0335629  
C        C      0.260500000000     0.637700000000     0.038600000000     0.0335629  
C        C      0.450200000000     0.615200000000     0.931800000000     0.0335629  
C        C      0.489100000000     0.624900000000     0.896500000000     0.0335629  
C        C      0.544900000000     0.634000000000     0.850600000000     0.0335629  
C        C      0.591100000000     0.585500000000     0.828600000000     0.0335629  
C        C      0.642800000000     0.591200000000     0.784500000000     0.0335629  
C        C      0.636400000000     0.648800000000     0.760300000000     0.0335629  
C        C      0.573300000000     0.698300000000     0.782000000000     0.0335629  
C        C      0.524000000000     0.690600000000     0.827400000000     0.0335629  
C        C      0.695300000000     0.534100000000     0.762100000000     0.0335629  
C        C      0.565600000000     0.759690000000     0.758200000000     0.0335629  
C        C      0.637600000000     0.867400000000     0.840700000000     0.0335629  
C        C      0.632800000000     0.841100000000     0.886900000000     0.0335629  
C        C      0.725600000000     0.813600000000     0.907000000000     0.0335629  
C        C      0.720900000000     0.788000000000     0.949600000000     0.0335629  
C        C      0.621100000000     0.777900000000     0.970800000000     0.0335629  
C        C      0.518900000000     0.809100000000     0.952100000000     0.0335629  
C        C      0.525500000000     0.834600000000     0.908500000000     0.0335629  
C        C      0.612200000000     0.748900000000     0.014800000000     0.0335629  
C        C      0.613500000000     0.731100000000     0.053700000000     0.0335629  
C        C      0.618000000000     0.704300000000     0.099900000000     0.0335629  
C        C      0.721600000000     0.689900000000     0.121100000000     0.0335629  
C        C      0.723400000000     0.665400000000     0.164100000000     0.0335629  
C        C      0.616600000000     0.652700000000     0.186800000000     0.0335629  
C        C      0.507600000000     0.665900000000     0.167100000000     0.0335629  
C        C      0.511100000000     0.691300000000     0.122600000000     0.0335629  
C        C      0.842200000000     0.647900000000     0.186600000000     0.0335629  
C        C      0.401600000000     0.656500000000     0.189500000000     0.0335629  
O        O      0.622100000000     0.908530000000     0.719360000000    -0.291332   
O        O      0.633200000000     0.896400000000     0.614500000000    -0.291332   
O        O      0.752400000000     0.974600000000     0.630600000000    -0.291332   
O        O      0.189800000000     0.016320000000     0.281440000000    -0.291332   
O        O      0.246600000000     0.956730000000     0.222330000000    -0.291332   
O        O      0.125100000000     0.732600000000     0.222300000000    -0.291332   
O        O      0.996300000000     0.699750000000     0.276610000000    -0.291332   
O        O      0.235700000000     0.643490000000     0.318440000000    -0.291332   
O        O      0.053500000000     0.596760000000     0.327440000000    -0.291332   
O        O      0.436300000000     0.836790000000     0.665180000000    -0.291332   
O        O      0.337900000000     0.879380000000     0.724510000000    -0.291332   
O        O      0.805000000000     0.832100000000     0.668200000000    -0.291332   
O        O      0.903300000000     0.869930000000     0.730020000000    -0.291332   
O        O      0.377900000000     0.091470000000     0.219360000000    -0.291332   
O        O      0.366800000000     0.103600000000     0.114500000000    -0.291332   
O        O      0.247600000000     0.025400000000     0.130600000000    -0.291332   
O        O      0.810200000000     0.983680000000     0.781440000000    -0.291332   
O        O      0.753400000000     0.043270000000     0.722330000000    -0.291332   
O        O      0.874900000000     0.267400000000     0.722300000000    -0.291332   
O        O      0.003700000000     0.300250000000     0.776610000000    -0.291332   
O        O      0.764300000000     0.356510000000     0.818440000000    -0.291332   
O        O      0.946500000000     0.403240000000     0.827440000000    -0.291332   
O        O      0.563700000000     0.163210000000     0.165180000000    -0.291332   
O        O      0.662100000000     0.120620000000     0.224510000000    -0.291332   
O        O      0.195000000000     0.167900000000     0.168200000000    -0.291332   
O        O      0.096700000000     0.130070000000     0.230020000000    -0.291332   
O        O      0.877900000000     0.408530000000     0.719360000000    -0.291332   
O        O      0.866800000000     0.396400000000     0.614500000000    -0.291332   
O        O      0.747600000000     0.474600000000     0.630600000000    -0.291332   
O        O      0.310200000000     0.516320000000     0.281440000000    -0.291332   
O        O      0.253400000000     0.456730000000     0.222330000000    -0.291332   
O        O      0.374900000000     0.232600000000     0.222300000000    -0.291332   
O        O      0.503700000000     0.199750000000     0.276610000000    -0.291332   
O        O      0.264300000000     0.143490000000     0.318440000000    -0.291332   
O        O      0.446500000000     0.096760000000     0.327440000000    -0.291332   
O        O      0.063700000000     0.336790000000     0.665180000000    -0.291332   
O        O      0.162100000000     0.379380000000     0.724510000000    -0.291332   
O        O      0.695000000000     0.332100000000     0.668200000000    -0.291332   
O        O      0.596700000000     0.369930000000     0.730020000000    -0.291332   
O        O      0.122100000000     0.591470000000     0.219360000000    -0.291332   
O        O      0.133200000000     0.603600000000     0.114500000000    -0.291332   
O        O      0.252400000000     0.525400000000     0.130600000000    -0.291332   
O        O      0.689800000000     0.483680000000     0.781440000000    -0.291332   
O        O      0.746600000000     0.543270000000     0.722330000000    -0.291332   
O        O      0.625100000000     0.767400000000     0.722300000000    -0.291332   
O        O      0.496300000000     0.800250000000     0.776610000000    -0.291332   
O        O      0.735700000000     0.856510000000     0.818440000000    -0.291332   
O        O      0.553500000000     0.903240000000     0.827440000000    -0.291332   
O        O      0.936300000000     0.663210000000     0.165180000000    -0.291332   
O        O      0.837900000000     0.620620000000     0.224510000000    -0.291332   
O        O      0.305000000000     0.667900000000     0.168200000000    -0.291332   
O        O      0.403300000000     0.630070000000     0.230020000000    -0.291332   


