data_UJAQUS_original

_audit_creation_method RASPA-1.0
_audit_creation_date 2022-1-29
_audit_author_name 'Felipe Lopes de Oliveira <felipe.lopes.oliveira@ibm.com>'

_cell_length_a    11.1099
_cell_length_b    13.8909
_cell_length_c    22.485
_cell_angle_alpha 90
_cell_angle_beta  90
_cell_angle_gamma 90
_cell_volume      3470.03

_symmetry_cell_setting          triclinic
_symmetry_space_group_name_Hall 'P 1'
_symmetry_space_group_name_H-M  'P 1'
_symmetry_Int_Tables_number     1

_symmetry_equiv_pos_as_xyz 'x,y,z'

loop_
_atom_site_label
_atom_site_type_symbol
_atom_site_fract_x
_atom_site_fract_y
_atom_site_fract_z
_atom_site_charge
Zn       Zn     0.632110000000     0.140830000000     0.652990000000     0.436866   
Zn       Zn     0.865860000000     0.018740000000     0.561390000000     0.436866   
Zn       Zn     0.867890000000     0.859170000000     0.152990000000     0.436866   
Zn       Zn     0.634140000000     0.981260000000     0.061390000000     0.436866   
Zn       Zn     0.367890000000     0.640830000000     0.847010000000     0.436866   
Zn       Zn     0.134140000000     0.518740000000     0.938610000000     0.436866   
Zn       Zn     0.132110000000     0.359170000000     0.347010000000     0.436866   
Zn       Zn     0.365860000000     0.481260000000     0.438610000000     0.436866   
H        H      0.137900000000     0.519200000000     0.569700000000     0.0759837  
H        H      0.910500000000     0.376000000000     0.680400000000     0.0759837  
H        H      0.969800000000     0.277900000000     0.512700000000     0.0759837  
H        H      0.907400000000     0.533000000000     0.717700000000     0.0759837  
H        H      0.010200000000     0.471700000000     0.750900000000     0.0759837  
H        H      0.123600000000     0.616500000000     0.763600000000     0.0759837  
H        H      0.998400000000     0.619600000000     0.798700000000     0.0759837  
H        H      0.928000000000     0.854000000000     0.681300000000     0.0759837  
H        H      0.583300000000     0.852300000000     0.740400000000     0.0759837  
H        H      0.807800000000     0.631000000000     0.781400000000     0.0759837  
H        H      0.362100000000     0.480800000000     0.069700000000     0.0759837  
H        H      0.589500000000     0.624000000000     0.180400000000     0.0759837  
H        H      0.530200000000     0.722100000000     0.012700000000     0.0759837  
H        H      0.592600000000     0.467000000000     0.217700000000     0.0759837  
H        H      0.489800000000     0.528300000000     0.250900000000     0.0759837  
H        H      0.376400000000     0.383500000000     0.263600000000     0.0759837  
H        H      0.501600000000     0.380400000000     0.298700000000     0.0759837  
H        H      0.572000000000     0.146000000000     0.181300000000     0.0759837  
H        H      0.916700000000     0.147700000000     0.240400000000     0.0759837  
H        H      0.692200000000     0.369000000000     0.281400000000     0.0759837  
H        H      0.862100000000     0.019200000000     0.930300000000     0.0759837  
H        H      0.089500000000     0.876000000000     0.819600000000     0.0759837  
H        H      0.030200000000     0.777900000000     0.987300000000     0.0759837  
H        H      0.092600000000     0.033000000000     0.782300000000     0.0759837  
H        H      0.989800000000     0.971700000000     0.749100000000     0.0759837  
H        H      0.876400000000     0.116500000000     0.736400000000     0.0759837  
H        H      0.001600000000     0.119600000000     0.701300000000     0.0759837  
H        H      0.072000000000     0.354000000000     0.818700000000     0.0759837  
H        H      0.416700000000     0.352300000000     0.759600000000     0.0759837  
H        H      0.192200000000     0.131000000000     0.718600000000     0.0759837  
H        H      0.637900000000     0.980800000000     0.430300000000     0.0759837  
H        H      0.410500000000     0.124000000000     0.319600000000     0.0759837  
H        H      0.469800000000     0.222100000000     0.487300000000     0.0759837  
H        H      0.407400000000     0.967000000000     0.282300000000     0.0759837  
H        H      0.510200000000     0.028300000000     0.249100000000     0.0759837  
H        H      0.623600000000     0.883500000000     0.236400000000     0.0759837  
H        H      0.498400000000     0.880400000000     0.201300000000     0.0759837  
H        H      0.428000000000     0.646000000000     0.318700000000     0.0759837  
H        H      0.083300000000     0.647700000000     0.259600000000     0.0759837  
H        H      0.307800000000     0.869000000000     0.218600000000     0.0759837  
C        C      0.113500000000     0.417230000000     0.470910000000     0.0522102  
C        C      0.059000000000     0.402500000000     0.531230000000     0.0522102  
C        C      0.083800000000     0.467410000000     0.576540000000     0.0522102  
C        C      0.029900000000     0.456900000000     0.631850000000     0.0522102  
C        C      0.949100000000     0.382050000000     0.642850000000     0.0522102  
C        C      0.926500000000     0.315990000000     0.597030000000     0.0522102  
C        C      0.983000000000     0.325000000000     0.542610000000     0.0522102  
C        C      0.842400000000     0.232220000000     0.606970000000     0.0522102  
C        C      0.994700000000     0.529600000000     0.726380000000     0.0522102  
C        C      0.035100000000     0.618720000000     0.758590000000     0.0522102  
C        C      0.886700000000     0.736680000000     0.732340000000     0.0522102  
C        C      0.865500000000     0.824390000000     0.703630000000     0.0522102  
C        C      0.754200000000     0.868200000000     0.707520000000     0.0522102  
C        C      0.660100000000     0.822600000000     0.737760000000     0.0522102  
C        C      0.680200000000     0.732650000000     0.764000000000     0.0522102  
C        C      0.793800000000     0.690900000000     0.762180000000     0.0522102  
C        C      0.581600000000     0.678800000000     0.795680000000     0.0522102  
C        C      0.741300000000     0.966100000000     0.680010000000     0.0522102  
C        C      0.386500000000     0.582770000000     0.970910000000     0.0522102  
C        C      0.441000000000     0.597500000000     0.031230000000     0.0522102  
C        C      0.416200000000     0.532590000000     0.076540000000     0.0522102  
C        C      0.470100000000     0.543100000000     0.131850000000     0.0522102  
C        C      0.550900000000     0.617950000000     0.142850000000     0.0522102  
C        C      0.573500000000     0.684010000000     0.097030000000     0.0522102  
C        C      0.517000000000     0.675000000000     0.042610000000     0.0522102  
C        C      0.657600000000     0.767780000000     0.106970000000     0.0522102  
C        C      0.505300000000     0.470400000000     0.226380000000     0.0522102  
C        C      0.464900000000     0.381280000000     0.258590000000     0.0522102  
C        C      0.613300000000     0.263320000000     0.232340000000     0.0522102  
C        C      0.634500000000     0.175610000000     0.203630000000     0.0522102  
C        C      0.745800000000     0.131800000000     0.207520000000     0.0522102  
C        C      0.839900000000     0.177400000000     0.237760000000     0.0522102  
C        C      0.819800000000     0.267350000000     0.264000000000     0.0522102  
C        C      0.706200000000     0.309100000000     0.262180000000     0.0522102  
C        C      0.918400000000     0.321200000000     0.295680000000     0.0522102  
C        C      0.758700000000     0.033900000000     0.180010000000     0.0522102  
C        C      0.886500000000     0.917230000000     0.029090000000     0.0522102  
C        C      0.941000000000     0.902500000000     0.968770000000     0.0522102  
C        C      0.916200000000     0.967410000000     0.923460000000     0.0522102  
C        C      0.970100000000     0.956900000000     0.868150000000     0.0522102  
C        C      0.050900000000     0.882050000000     0.857150000000     0.0522102  
C        C      0.073500000000     0.815990000000     0.902970000000     0.0522102  
C        C      0.017000000000     0.825000000000     0.957390000000     0.0522102  
C        C      0.157600000000     0.732220000000     0.893030000000     0.0522102  
C        C      0.005300000000     0.029600000000     0.773620000000     0.0522102  
C        C      0.964900000000     0.118720000000     0.741410000000     0.0522102  
C        C      0.113300000000     0.236680000000     0.767660000000     0.0522102  
C        C      0.134500000000     0.324390000000     0.796370000000     0.0522102  
C        C      0.245800000000     0.368200000000     0.792480000000     0.0522102  
C        C      0.339900000000     0.322600000000     0.762240000000     0.0522102  
C        C      0.319800000000     0.232650000000     0.736000000000     0.0522102  
C        C      0.206200000000     0.190900000000     0.737820000000     0.0522102  
C        C      0.418400000000     0.178800000000     0.704320000000     0.0522102  
C        C      0.258700000000     0.466100000000     0.819990000000     0.0522102  
C        C      0.613500000000     0.082770000000     0.529090000000     0.0522102  
C        C      0.559000000000     0.097500000000     0.468770000000     0.0522102  
C        C      0.583800000000     0.032590000000     0.423460000000     0.0522102  
C        C      0.529900000000     0.043100000000     0.368150000000     0.0522102  
C        C      0.449100000000     0.117950000000     0.357150000000     0.0522102  
C        C      0.426500000000     0.184010000000     0.402970000000     0.0522102  
C        C      0.483000000000     0.175000000000     0.457390000000     0.0522102  
C        C      0.342400000000     0.267780000000     0.393030000000     0.0522102  
C        C      0.494700000000     0.970400000000     0.273620000000     0.0522102  
C        C      0.535100000000     0.881280000000     0.241410000000     0.0522102  
C        C      0.386700000000     0.763320000000     0.267660000000     0.0522102  
C        C      0.365500000000     0.675610000000     0.296370000000     0.0522102  
C        C      0.254200000000     0.631800000000     0.292480000000     0.0522102  
C        C      0.160100000000     0.677400000000     0.262240000000     0.0522102  
C        C      0.180200000000     0.767350000000     0.236000000000     0.0522102  
C        C      0.293800000000     0.809100000000     0.237820000000     0.0522102  
C        C      0.081600000000     0.821200000000     0.204320000000     0.0522102  
C        C      0.241300000000     0.533900000000     0.319990000000     0.0522102  
O        O      0.184700000000     0.486100000000     0.463960000000    -0.257335   
O        O      0.079000000000     0.359460000000     0.430270000000    -0.257335   
O        O      0.771000000000     0.233770000000     0.650880000000    -0.257335   
O        O      0.849350000000     0.166090000000     0.568740000000    -0.257335   
O        O      0.062100000000     0.525700000000     0.672630000000    -0.257335   
O        O      0.003260000000     0.705050000000     0.727960000000    -0.257335   
O        O      0.477330000000     0.718720000000     0.797760000000    -0.257335   
O        O      0.605200000000     0.599760000000     0.818860000000    -0.257335   
O        O      0.645000000000     0.012930000000     0.690600000000    -0.257335   
O        O      0.827300000000     0.998420000000     0.650550000000    -0.257335   
O        O      0.315300000000     0.513900000000     0.963960000000    -0.257335   
O        O      0.421000000000     0.640540000000     0.930270000000    -0.257335   
O        O      0.729000000000     0.766230000000     0.150880000000    -0.257335   
O        O      0.650650000000     0.833910000000     0.068740000000    -0.257335   
O        O      0.437900000000     0.474300000000     0.172630000000    -0.257335   
O        O      0.496740000000     0.294950000000     0.227960000000    -0.257335   
O        O      0.022670000000     0.281280000000     0.297760000000    -0.257335   
O        O      0.894800000000     0.400240000000     0.318860000000    -0.257335   
O        O      0.855000000000     0.987070000000     0.190600000000    -0.257335   
O        O      0.672700000000     0.001580000000     0.150550000000    -0.257335   
O        O      0.815300000000     0.986100000000     0.036040000000    -0.257335   
O        O      0.921000000000     0.859460000000     0.069730000000    -0.257335   
O        O      0.229000000000     0.733770000000     0.849120000000    -0.257335   
O        O      0.150650000000     0.666090000000     0.931260000000    -0.257335   
O        O      0.937900000000     0.025700000000     0.827370000000    -0.257335   
O        O      0.996740000000     0.205050000000     0.772040000000    -0.257335   
O        O      0.522670000000     0.218720000000     0.702240000000    -0.257335   
O        O      0.394800000000     0.099760000000     0.681140000000    -0.257335   
O        O      0.355000000000     0.512930000000     0.809400000000    -0.257335   
O        O      0.172700000000     0.498420000000     0.849450000000    -0.257335   
O        O      0.684700000000     0.013900000000     0.536040000000    -0.257335   
O        O      0.579000000000     0.140540000000     0.569730000000    -0.257335   
O        O      0.271000000000     0.266230000000     0.349120000000    -0.257335   
O        O      0.349350000000     0.333910000000     0.431260000000    -0.257335   
O        O      0.562100000000     0.974300000000     0.327370000000    -0.257335   
O        O      0.503260000000     0.794950000000     0.272040000000    -0.257335   
O        O      0.977330000000     0.781280000000     0.202240000000    -0.257335   
O        O      0.105200000000     0.900240000000     0.181140000000    -0.257335   
O        O      0.145000000000     0.487070000000     0.309400000000    -0.257335   
O        O      0.327300000000     0.501580000000     0.349450000000    -0.257335   


