data_ULUVUT_original

_audit_creation_method RASPA-1.0
_audit_creation_date 2022-1-31
_audit_author_name 'Felipe Lopes de Oliveira <felipe.lopes.oliveira@ibm.com>'

_cell_length_a    8.7796
_cell_length_b    10.0297
_cell_length_c    10.1561
_cell_angle_alpha 119.587
_cell_angle_beta  115.607
_cell_angle_gamma 90.0045
_cell_volume      674.83

_symmetry_cell_setting          triclinic
_symmetry_space_group_name_Hall 'P 1'
_symmetry_space_group_name_H-M  'P 1'
_symmetry_Int_Tables_number     1

_symmetry_equiv_pos_as_xyz 'x,y,z'

loop_
_atom_site_label
_atom_site_type_symbol
_atom_site_fract_x
_atom_site_fract_y
_atom_site_fract_z
_atom_site_charge
Zn       Zn     0.979610000000     0.163140000000     0.275420000000     0.366856   
Zn       Zn     0.204190000000     0.887720000000     0.724580000000     0.366856   
H        H      0.849000000000     0.852600000000     0.246000000000     0.189279   
H        H      0.875300000000     0.768700000000     0.340800000000     0.189279   
H        H      0.002600000000     0.183900000000     0.878000000000     0.189279   
H        H      0.043700000000     0.275600000000     0.056200000000     0.189279   
H        H      0.103000000000     0.606600000000     0.754000000000     0.189279   
H        H      0.034500000000     0.427900000000     0.659200000000     0.189279   
H        H      0.624600000000     0.305900000000     0.122000000000     0.189279   
H        H      0.487500000000     0.219400000000     0.943800000000     0.189279   
C        C      0.029600000000     0.980900000000     0.456000000000     0.242556   
C        C      0.096000000000     0.079300000000     0.003800000000     0.242556   
C        C      0.073600000000     0.524900000000     0.544000000000     0.242556   
C        C      0.592200000000     0.075500000000     0.996200000000     0.242556   
N        N      0.064000000000     0.109800000000     0.452800000000    -0.160908   
N        N      0.203500000000     0.217200000000     0.612800000000    -0.160908   
N        N      0.897500000000     0.849500000000     0.327400000000    -0.160908   
N        N      0.143100000000     0.007500000000     0.610600000000    -0.160908   
N        N      0.249400000000     0.159000000000     0.705600000000    -0.160908   
N        N      0.135600000000     0.930800000000     0.106400000000    -0.160908   
N        N      0.157200000000     0.862400000000     0.974400000000    -0.160908   
N        N      0.095400000000     0.071300000000     0.131200000000    -0.160908   
N        N      0.133400000000     0.952800000000     0.905000000000    -0.160908   
N        N      0.062600000000     0.199800000000     0.982200000000    -0.160908   
N        N      0.111200000000     0.657000000000     0.547200000000    -0.160908   
N        N      0.090700000000     0.604400000000     0.387200000000    -0.160908   
N        N      0.070100000000     0.522100000000     0.672600000000    -0.160908   
N        N      0.032500000000     0.396900000000     0.389400000000    -0.160908   
N        N      0.043800000000     0.453400000000     0.294400000000    -0.160908   
N        N      0.529200000000     0.824400000000     0.893600000000    -0.160908   
N        N      0.682800000000     0.888000000000     0.025600000000    -0.160908   
N        N      0.464200000000     0.940100000000     0.868800000000    -0.160908   
N        N      0.728400000000     0.047800000000     0.095000000000    -0.160908   
N        N      0.580400000000     0.217600000000     0.017800000000    -0.160908   


