data_UNIGEE_original

_audit_creation_method RASPA-1.0
_audit_creation_date 2022-1-29
_audit_author_name 'Felipe Lopes de Oliveira <felipe.lopes.oliveira@ibm.com>'

_cell_length_a    18.1424
_cell_length_b    18.1424
_cell_length_c    18.1424
_cell_angle_alpha 60
_cell_angle_beta  60
_cell_angle_gamma 60
_cell_volume      4222.5

_symmetry_cell_setting          triclinic
_symmetry_space_group_name_Hall 'P 1'
_symmetry_space_group_name_H-M  'P 1'
_symmetry_Int_Tables_number     1

_symmetry_equiv_pos_as_xyz 'x,y,z'

loop_
_atom_site_label
_atom_site_type_symbol
_atom_site_fract_x
_atom_site_fract_y
_atom_site_fract_z
_atom_site_charge
Zn       Zn     0.793690000000     0.793680000000     0.618950000000     0.476669   
Zn       Zn     0.793690000000     0.793680000000     0.793680000000     0.476669   
Zn       Zn     0.618960000000     0.793680000000     0.793680000000     0.476669   
Zn       Zn     0.793690000000     0.618950000000     0.793680000000     0.476669   
Zn       Zn     0.206310000000     0.206320000000     0.381050000000     0.476669   
Zn       Zn     0.206310000000     0.206320000000     0.206320000000     0.476669   
Zn       Zn     0.206310000000     0.381050000000     0.206320000000     0.476669   
Zn       Zn     0.381040000000     0.206320000000     0.206320000000     0.476669   
H        H      0.655900000000     0.955500000000     0.433100000000     0.0623254  
H        H      0.955500000000     0.655900000000     0.955500000000     0.0623254  
H        H      0.433100000000     0.955500000000     0.655900000000     0.0623254  
H        H      0.955500000000     0.433100000000     0.955500000000     0.0623254  
H        H      0.655900000000     0.433100000000     0.955500000000     0.0623254  
H        H      0.955500000000     0.955500000000     0.433100000000     0.0623254  
H        H      0.433100000000     0.655900000000     0.955500000000     0.0623254  
H        H      0.955500000000     0.955500000000     0.655900000000     0.0623254  
H        H      0.655900000000     0.955500000000     0.955500000000     0.0623254  
H        H      0.955500000000     0.433100000000     0.655900000000     0.0623254  
H        H      0.433100000000     0.955500000000     0.955500000000     0.0623254  
H        H      0.955500000000     0.655900000000     0.433100000000     0.0623254  
H        H      0.044500000000     0.344100000000     0.566900000000     0.0623254  
H        H      0.344100000000     0.044500000000     0.044500000000     0.0623254  
H        H      0.044500000000     0.566900000000     0.344100000000     0.0623254  
H        H      0.566900000000     0.044500000000     0.044500000000     0.0623254  
H        H      0.566900000000     0.344100000000     0.044500000000     0.0623254  
H        H      0.044500000000     0.044500000000     0.566900000000     0.0623254  
H        H      0.344100000000     0.566900000000     0.044500000000     0.0623254  
H        H      0.044500000000     0.044500000000     0.344100000000     0.0623254  
H        H      0.044500000000     0.344100000000     0.044500000000     0.0623254  
H        H      0.566900000000     0.044500000000     0.344100000000     0.0623254  
H        H      0.044500000000     0.566900000000     0.044500000000     0.0623254  
H        H      0.344100000000     0.044500000000     0.566900000000     0.0623254  
C        C      0.592110000000     0.973970000000     0.459950000000     0.0502689  
C        C      0.973970000000     0.592110000000     0.973970000000     0.0502689  
C        C      0.459950000000     0.973970000000     0.592110000000     0.0502689  
C        C      0.973970000000     0.459950000000     0.973970000000     0.0502689  
C        C      0.592110000000     0.459950000000     0.973970000000     0.0502689  
C        C      0.973970000000     0.973970000000     0.459950000000     0.0502689  
C        C      0.459950000000     0.592110000000     0.973970000000     0.0502689  
C        C      0.973970000000     0.973970000000     0.592110000000     0.0502689  
C        C      0.592110000000     0.973970000000     0.973970000000     0.0502689  
C        C      0.973970000000     0.459950000000     0.592110000000     0.0502689  
C        C      0.459950000000     0.973970000000     0.973970000000     0.0502689  
C        C      0.973970000000     0.592110000000     0.459950000000     0.0502689  
C        C      0.026030000000     0.407890000000     0.540050000000     0.0502689  
C        C      0.407890000000     0.026030000000     0.026030000000     0.0502689  
C        C      0.026030000000     0.540050000000     0.407890000000     0.0502689  
C        C      0.540050000000     0.026030000000     0.026030000000     0.0502689  
C        C      0.540050000000     0.407890000000     0.026030000000     0.0502689  
C        C      0.026030000000     0.026030000000     0.540050000000     0.0502689  
C        C      0.407890000000     0.540050000000     0.026030000000     0.0502689  
C        C      0.026030000000     0.026030000000     0.407890000000     0.0502689  
C        C      0.026030000000     0.407890000000     0.026030000000     0.0502689  
C        C      0.540050000000     0.026030000000     0.407890000000     0.0502689  
C        C      0.026030000000     0.540050000000     0.026030000000     0.0502689  
C        C      0.407890000000     0.026030000000     0.540050000000     0.0502689  
C        C      0.553200000000     0.946800000000     0.553200000000     0.0502689  
C        C      0.611600000000     0.888400000000     0.611600000000     0.0502689  
C        C      0.946800000000     0.553200000000     0.946800000000     0.0502689  
C        C      0.888400000000     0.611600000000     0.888400000000     0.0502689  
C        C      0.553200000000     0.553200000000     0.946800000000     0.0502689  
C        C      0.611600000000     0.611600000000     0.888400000000     0.0502689  
C        C      0.946800000000     0.946800000000     0.553200000000     0.0502689  
C        C      0.888400000000     0.888400000000     0.611600000000     0.0502689  
C        C      0.553200000000     0.946800000000     0.946800000000     0.0502689  
C        C      0.611600000000     0.888400000000     0.888400000000     0.0502689  
C        C      0.946800000000     0.553200000000     0.553200000000     0.0502689  
C        C      0.888400000000     0.611600000000     0.611600000000     0.0502689  
C        C      0.053200000000     0.446800000000     0.446800000000     0.0502689  
C        C      0.111600000000     0.388400000000     0.388400000000     0.0502689  
C        C      0.446800000000     0.053200000000     0.053200000000     0.0502689  
C        C      0.388400000000     0.111600000000     0.111600000000     0.0502689  
C        C      0.446800000000     0.446800000000     0.053200000000     0.0502689  
C        C      0.388400000000     0.388400000000     0.111600000000     0.0502689  
C        C      0.053200000000     0.053200000000     0.446800000000     0.0502689  
C        C      0.111600000000     0.111600000000     0.388400000000     0.0502689  
C        C      0.053200000000     0.446800000000     0.053200000000     0.0502689  
C        C      0.111600000000     0.388400000000     0.111600000000     0.0502689  
C        C      0.446800000000     0.053200000000     0.446800000000     0.0502689  
C        C      0.388400000000     0.111600000000     0.388400000000     0.0502689  
O        O      0.750000000000     0.750000000000     0.750000000000    -0.297003   
O        O      0.250000000000     0.250000000000     0.250000000000    -0.297003   
O        O      0.698090000000     0.866350000000     0.569210000000    -0.297003   
O        O      0.866350000000     0.698090000000     0.866350000000    -0.297003   
O        O      0.569210000000     0.866350000000     0.698090000000    -0.297003   
O        O      0.866350000000     0.569210000000     0.866350000000    -0.297003   
O        O      0.698090000000     0.569210000000     0.866350000000    -0.297003   
O        O      0.866350000000     0.866350000000     0.569210000000    -0.297003   
O        O      0.569210000000     0.698090000000     0.866350000000    -0.297003   
O        O      0.866350000000     0.866350000000     0.698090000000    -0.297003   
O        O      0.698090000000     0.866350000000     0.866350000000    -0.297003   
O        O      0.866350000000     0.569210000000     0.698090000000    -0.297003   
O        O      0.569210000000     0.866350000000     0.866350000000    -0.297003   
O        O      0.866350000000     0.698090000000     0.569210000000    -0.297003   
O        O      0.133650000000     0.301910000000     0.430790000000    -0.297003   
O        O      0.301910000000     0.133650000000     0.133650000000    -0.297003   
O        O      0.133650000000     0.430790000000     0.301910000000    -0.297003   
O        O      0.430790000000     0.133650000000     0.133650000000    -0.297003   
O        O      0.430790000000     0.301910000000     0.133650000000    -0.297003   
O        O      0.133650000000     0.133650000000     0.430790000000    -0.297003   
O        O      0.301910000000     0.430790000000     0.133650000000    -0.297003   
O        O      0.133650000000     0.133650000000     0.301910000000    -0.297003   
O        O      0.133650000000     0.301910000000     0.133650000000    -0.297003   
O        O      0.430790000000     0.133650000000     0.301910000000    -0.297003   
O        O      0.133650000000     0.430790000000     0.133650000000    -0.297003   
O        O      0.301910000000     0.133650000000     0.430790000000    -0.297003   


