data_UTEXAT_original

_audit_creation_method RASPA-1.0
_audit_creation_date 2022-1-30
_audit_author_name 'Felipe Lopes de Oliveira <felipe.lopes.oliveira@ibm.com>'

_cell_length_a    15.555
_cell_length_b    15.555
_cell_length_c    20.0304
_cell_angle_alpha 90
_cell_angle_beta  90
_cell_angle_gamma 90
_cell_volume      4846.52

_symmetry_cell_setting          triclinic
_symmetry_space_group_name_Hall 'P 1'
_symmetry_space_group_name_H-M  'P 1'
_symmetry_Int_Tables_number     1

_symmetry_equiv_pos_as_xyz 'x,y,z'

loop_
_atom_site_label
_atom_site_type_symbol
_atom_site_fract_x
_atom_site_fract_y
_atom_site_fract_z
_atom_site_charge
Zn       Zn     0.250000000000     0.750000000000     0.000000000000     0.320086   
Zn       Zn     0.750000000000     0.250000000000     0.500000000000     0.320086   
Zn       Zn     0.750000000000     0.250000000000     0.000000000000     0.320086   
Zn       Zn     0.250000000000     0.750000000000     0.500000000000     0.320086   
Zn       Zn     0.083060000000     0.916940000000     0.000000000000     0.320086   
Zn       Zn     0.416940000000     0.583060000000     0.000000000000     0.320086   
Zn       Zn     0.583060000000     0.083060000000     0.500000000000     0.320086   
Zn       Zn     0.916940000000     0.416940000000     0.500000000000     0.320086   
Zn       Zn     0.916940000000     0.083060000000     0.000000000000     0.320086   
Zn       Zn     0.583060000000     0.416940000000     0.000000000000     0.320086   
Zn       Zn     0.416940000000     0.916940000000     0.500000000000     0.320086   
Zn       Zn     0.083060000000     0.583060000000     0.500000000000     0.320086   
H        H      0.153610000000     0.969400000000     0.736430000000     0.0422502  
H        H      0.138870000000     0.956800000000     0.844010000000     0.0422502  
H        H      0.222570000000     0.052940000000     0.070800000000     0.0422502  
H        H      0.355580000000     0.841940000000     0.120890000000     0.0422502  
H        H      0.346390000000     0.530600000000     0.736430000000     0.0422502  
H        H      0.361130000000     0.543200000000     0.844010000000     0.0422502  
H        H      0.277430000000     0.447060000000     0.070800000000     0.0422502  
H        H      0.144420000000     0.658060000000     0.120890000000     0.0422502  
H        H      0.530600000000     0.153610000000     0.236430000000     0.0422502  
H        H      0.543200000000     0.138870000000     0.344010000000     0.0422502  
H        H      0.447060000000     0.222570000000     0.570800000000     0.0422502  
H        H      0.658060000000     0.355580000000     0.620890000000     0.0422502  
H        H      0.969400000000     0.346390000000     0.236430000000     0.0422502  
H        H      0.956800000000     0.361130000000     0.344010000000     0.0422502  
H        H      0.052940000000     0.277430000000     0.570800000000     0.0422502  
H        H      0.841940000000     0.144420000000     0.620890000000     0.0422502  
H        H      0.846390000000     0.469400000000     0.763570000000     0.0422502  
H        H      0.861130000000     0.456800000000     0.655990000000     0.0422502  
H        H      0.777430000000     0.552940000000     0.429200000000     0.0422502  
H        H      0.644420000000     0.341940000000     0.379110000000     0.0422502  
H        H      0.653610000000     0.030600000000     0.763570000000     0.0422502  
H        H      0.638870000000     0.043200000000     0.655990000000     0.0422502  
H        H      0.722570000000     0.947060000000     0.429200000000     0.0422502  
H        H      0.855580000000     0.158060000000     0.379110000000     0.0422502  
H        H      0.469400000000     0.653610000000     0.263570000000     0.0422502  
H        H      0.456800000000     0.638870000000     0.155990000000     0.0422502  
H        H      0.552940000000     0.722570000000     0.929200000000     0.0422502  
H        H      0.341940000000     0.855580000000     0.879110000000     0.0422502  
H        H      0.030600000000     0.846390000000     0.263570000000     0.0422502  
H        H      0.043200000000     0.861130000000     0.155990000000     0.0422502  
H        H      0.947060000000     0.777430000000     0.929200000000     0.0422502  
H        H      0.158060000000     0.644420000000     0.879110000000     0.0422502  
H        H      0.846390000000     0.030600000000     0.263570000000     0.0422502  
H        H      0.861130000000     0.043200000000     0.155990000000     0.0422502  
H        H      0.777430000000     0.947060000000     0.929200000000     0.0422502  
H        H      0.644420000000     0.158060000000     0.879110000000     0.0422502  
H        H      0.653610000000     0.469400000000     0.263570000000     0.0422502  
H        H      0.638870000000     0.456800000000     0.155990000000     0.0422502  
H        H      0.722570000000     0.552940000000     0.929200000000     0.0422502  
H        H      0.855580000000     0.341940000000     0.879110000000     0.0422502  
H        H      0.469400000000     0.846390000000     0.763570000000     0.0422502  
H        H      0.456800000000     0.861130000000     0.655990000000     0.0422502  
H        H      0.552940000000     0.777430000000     0.429200000000     0.0422502  
H        H      0.341940000000     0.644420000000     0.379110000000     0.0422502  
H        H      0.030600000000     0.653610000000     0.763570000000     0.0422502  
H        H      0.043200000000     0.638870000000     0.655990000000     0.0422502  
H        H      0.947060000000     0.722570000000     0.429200000000     0.0422502  
H        H      0.158060000000     0.855580000000     0.379110000000     0.0422502  
H        H      0.153610000000     0.530600000000     0.236430000000     0.0422502  
H        H      0.138870000000     0.543200000000     0.344010000000     0.0422502  
H        H      0.222570000000     0.447060000000     0.570800000000     0.0422502  
H        H      0.355580000000     0.658060000000     0.620890000000     0.0422502  
H        H      0.346390000000     0.969400000000     0.236430000000     0.0422502  
H        H      0.361130000000     0.956800000000     0.344010000000     0.0422502  
H        H      0.277430000000     0.052940000000     0.570800000000     0.0422502  
H        H      0.144420000000     0.841940000000     0.620890000000     0.0422502  
H        H      0.530600000000     0.346390000000     0.736430000000     0.0422502  
H        H      0.543200000000     0.361130000000     0.844010000000     0.0422502  
H        H      0.447060000000     0.277430000000     0.070800000000     0.0422502  
H        H      0.658060000000     0.144420000000     0.120890000000     0.0422502  
H        H      0.969400000000     0.153610000000     0.736430000000     0.0422502  
H        H      0.956800000000     0.138870000000     0.844010000000     0.0422502  
H        H      0.052940000000     0.222570000000     0.070800000000     0.0422502  
H        H      0.841940000000     0.355580000000     0.120890000000     0.0422502  
H        H      0.084000000000     0.084010000000     0.562910000000     0.0422502  
H        H      0.416000000000     0.415990000000     0.562910000000     0.0422502  
H        H      0.415990000000     0.084000000000     0.062910000000     0.0422502  
H        H      0.084010000000     0.416000000000     0.062910000000     0.0422502  
H        H      0.916000000000     0.584000000000     0.937090000000     0.0422502  
H        H      0.584000000000     0.915990000000     0.937090000000     0.0422502  
H        H      0.584000000000     0.584000000000     0.437090000000     0.0422502  
H        H      0.915990000000     0.916000000000     0.437090000000     0.0422502  
C        C      0.119380000000     0.009960000000     0.712950000000    -0.00849822 
C        C      0.128140000000     0.018680000000     0.644220000000    -0.00849822 
C        C      0.096150000000     0.996230000000     0.858540000000    -0.00849822 
C        C      0.189520000000     0.965860000000     0.608360000000    -0.00849822 
C        C      0.240130000000     0.994680000000     0.074830000000    -0.00849822 
C        C      0.313170000000     0.878820000000     0.102340000000    -0.00849822 
C        C      0.380620000000     0.490040000000     0.712950000000    -0.00849822 
C        C      0.371860000000     0.481320000000     0.644220000000    -0.00849822 
C        C      0.403850000000     0.503770000000     0.858540000000    -0.00849822 
C        C      0.310480000000     0.534140000000     0.608360000000    -0.00849822 
C        C      0.259870000000     0.505320000000     0.074830000000    -0.00849822 
C        C      0.186830000000     0.621180000000     0.102340000000    -0.00849822 
C        C      0.490040000000     0.119380000000     0.212950000000    -0.00849822 
C        C      0.481320000000     0.128140000000     0.144220000000    -0.00849822 
C        C      0.503770000000     0.096150000000     0.358540000000    -0.00849822 
C        C      0.534140000000     0.189520000000     0.108360000000    -0.00849822 
C        C      0.505320000000     0.240130000000     0.574830000000    -0.00849822 
C        C      0.621180000000     0.313170000000     0.602340000000    -0.00849822 
C        C      0.009960000000     0.380620000000     0.212950000000    -0.00849822 
C        C      0.018680000000     0.371860000000     0.144220000000    -0.00849822 
C        C      0.996230000000     0.403850000000     0.358540000000    -0.00849822 
C        C      0.965860000000     0.310480000000     0.108360000000    -0.00849822 
C        C      0.994680000000     0.259870000000     0.574830000000    -0.00849822 
C        C      0.878820000000     0.186830000000     0.602340000000    -0.00849822 
C        C      0.880620000000     0.509960000000     0.787050000000    -0.00849822 
C        C      0.871860000000     0.518680000000     0.855780000000    -0.00849822 
C        C      0.903850000000     0.496230000000     0.641460000000    -0.00849822 
C        C      0.810480000000     0.465860000000     0.891640000000    -0.00849822 
C        C      0.759870000000     0.494680000000     0.425170000000    -0.00849822 
C        C      0.686830000000     0.378820000000     0.397660000000    -0.00849822 
C        C      0.619380000000     0.990040000000     0.787050000000    -0.00849822 
C        C      0.628140000000     0.981320000000     0.855780000000    -0.00849822 
C        C      0.596150000000     0.003770000000     0.641460000000    -0.00849822 
C        C      0.689520000000     0.034140000000     0.891640000000    -0.00849822 
C        C      0.740130000000     0.005320000000     0.425170000000    -0.00849822 
C        C      0.813170000000     0.121180000000     0.397660000000    -0.00849822 
C        C      0.509960000000     0.619380000000     0.287050000000    -0.00849822 
C        C      0.518680000000     0.628140000000     0.355780000000    -0.00849822 
C        C      0.496230000000     0.596150000000     0.141460000000    -0.00849822 
C        C      0.465860000000     0.689520000000     0.391640000000    -0.00849822 
C        C      0.494680000000     0.740130000000     0.925170000000    -0.00849822 
C        C      0.378820000000     0.813170000000     0.897660000000    -0.00849822 
C        C      0.990040000000     0.880620000000     0.287050000000    -0.00849822 
C        C      0.981320000000     0.871860000000     0.355780000000    -0.00849822 
C        C      0.003770000000     0.903850000000     0.141460000000    -0.00849822 
C        C      0.034140000000     0.810480000000     0.391640000000    -0.00849822 
C        C      0.005320000000     0.759870000000     0.925170000000    -0.00849822 
C        C      0.121180000000     0.686830000000     0.897660000000    -0.00849822 
C        C      0.880620000000     0.990040000000     0.287050000000    -0.00849822 
C        C      0.871860000000     0.981320000000     0.355780000000    -0.00849822 
C        C      0.903850000000     0.003770000000     0.141460000000    -0.00849822 
C        C      0.810480000000     0.034140000000     0.391640000000    -0.00849822 
C        C      0.759870000000     0.005320000000     0.925170000000    -0.00849822 
C        C      0.686830000000     0.121180000000     0.897660000000    -0.00849822 
C        C      0.619380000000     0.509960000000     0.287050000000    -0.00849822 
C        C      0.628140000000     0.518680000000     0.355780000000    -0.00849822 
C        C      0.596150000000     0.496230000000     0.141460000000    -0.00849822 
C        C      0.689520000000     0.465860000000     0.391640000000    -0.00849822 
C        C      0.740130000000     0.494680000000     0.925170000000    -0.00849822 
C        C      0.813170000000     0.378820000000     0.897660000000    -0.00849822 
C        C      0.509960000000     0.880620000000     0.787050000000    -0.00849822 
C        C      0.518680000000     0.871860000000     0.855780000000    -0.00849822 
C        C      0.496230000000     0.903850000000     0.641460000000    -0.00849822 
C        C      0.465860000000     0.810480000000     0.891640000000    -0.00849822 
C        C      0.494680000000     0.759870000000     0.425170000000    -0.00849822 
C        C      0.378820000000     0.686830000000     0.397660000000    -0.00849822 
C        C      0.990040000000     0.619380000000     0.787050000000    -0.00849822 
C        C      0.981320000000     0.628140000000     0.855780000000    -0.00849822 
C        C      0.003770000000     0.596150000000     0.641460000000    -0.00849822 
C        C      0.034140000000     0.689520000000     0.891640000000    -0.00849822 
C        C      0.005320000000     0.740130000000     0.425170000000    -0.00849822 
C        C      0.121180000000     0.813170000000     0.397660000000    -0.00849822 
C        C      0.119380000000     0.490040000000     0.212950000000    -0.00849822 
C        C      0.128140000000     0.481320000000     0.144220000000    -0.00849822 
C        C      0.096150000000     0.503770000000     0.358540000000    -0.00849822 
C        C      0.189520000000     0.534140000000     0.108360000000    -0.00849822 
C        C      0.240130000000     0.505320000000     0.574830000000    -0.00849822 
C        C      0.313170000000     0.621180000000     0.602340000000    -0.00849822 
C        C      0.380620000000     0.009960000000     0.212950000000    -0.00849822 
C        C      0.371860000000     0.018680000000     0.144220000000    -0.00849822 
C        C      0.403850000000     0.996230000000     0.358540000000    -0.00849822 
C        C      0.310480000000     0.965860000000     0.108360000000    -0.00849822 
C        C      0.259870000000     0.994680000000     0.574830000000    -0.00849822 
C        C      0.186830000000     0.878820000000     0.602340000000    -0.00849822 
C        C      0.490040000000     0.380620000000     0.712950000000    -0.00849822 
C        C      0.481320000000     0.371860000000     0.644220000000    -0.00849822 
C        C      0.503770000000     0.403850000000     0.858540000000    -0.00849822 
C        C      0.534140000000     0.310480000000     0.608360000000    -0.00849822 
C        C      0.505320000000     0.259870000000     0.074830000000    -0.00849822 
C        C      0.621180000000     0.186830000000     0.102340000000    -0.00849822 
C        C      0.009960000000     0.119380000000     0.712950000000    -0.00849822 
C        C      0.018680000000     0.128140000000     0.644220000000    -0.00849822 
C        C      0.996230000000     0.096150000000     0.858540000000    -0.00849822 
C        C      0.965860000000     0.189520000000     0.608360000000    -0.00849822 
C        C      0.994680000000     0.240130000000     0.074830000000    -0.00849822 
C        C      0.878820000000     0.313170000000     0.102340000000    -0.00849822 
C        C      0.060560000000     0.060570000000     0.747340000000    -0.00849822 
C        C      0.078040000000     0.078040000000     0.609880000000    -0.00849822 
C        C      0.051450000000     0.051460000000     0.819030000000    -0.00849822 
C        C      0.439440000000     0.439430000000     0.747340000000    -0.00849822 
C        C      0.421960000000     0.421960000000     0.609880000000    -0.00849822 
C        C      0.448550000000     0.448540000000     0.819030000000    -0.00849822 
C        C      0.439430000000     0.060560000000     0.247340000000    -0.00849822 
C        C      0.421960000000     0.078040000000     0.109880000000    -0.00849822 
C        C      0.448540000000     0.051450000000     0.319030000000    -0.00849822 
C        C      0.060570000000     0.439440000000     0.247340000000    -0.00849822 
C        C      0.078040000000     0.421960000000     0.109880000000    -0.00849822 
C        C      0.051460000000     0.448550000000     0.319030000000    -0.00849822 
C        C      0.939440000000     0.560570000000     0.752660000000    -0.00849822 
C        C      0.921960000000     0.578040000000     0.890120000000    -0.00849822 
C        C      0.948550000000     0.551460000000     0.680970000000    -0.00849822 
C        C      0.560560000000     0.939430000000     0.752660000000    -0.00849822 
C        C      0.578040000000     0.921960000000     0.890120000000    -0.00849822 
C        C      0.551450000000     0.948540000000     0.680970000000    -0.00849822 
C        C      0.560570000000     0.560560000000     0.252660000000    -0.00849822 
C        C      0.578040000000     0.578040000000     0.390120000000    -0.00849822 
C        C      0.551460000000     0.551450000000     0.180970000000    -0.00849822 
C        C      0.939430000000     0.939440000000     0.252660000000    -0.00849822 
C        C      0.921960000000     0.921960000000     0.390120000000    -0.00849822 
C        C      0.948540000000     0.948550000000     0.180970000000    -0.00849822 
N        N      0.068990000000     0.007310000000     0.922500000000    -0.122151   
N        N      0.199330000000     0.925440000000     0.048090000000    -0.122151   
N        N      0.244470000000     0.853840000000     0.065090000000    -0.122151   
N        N      0.431010000000     0.492690000000     0.922500000000    -0.122151   
N        N      0.300670000000     0.574560000000     0.048090000000    -0.122151   
N        N      0.255530000000     0.646160000000     0.065090000000    -0.122151   
N        N      0.492690000000     0.068990000000     0.422500000000    -0.122151   
N        N      0.574560000000     0.199330000000     0.548090000000    -0.122151   
N        N      0.646160000000     0.244470000000     0.565090000000    -0.122151   
N        N      0.007310000000     0.431010000000     0.422500000000    -0.122151   
N        N      0.925440000000     0.300670000000     0.548090000000    -0.122151   
N        N      0.853840000000     0.255530000000     0.565090000000    -0.122151   
N        N      0.931010000000     0.507310000000     0.577500000000    -0.122151   
N        N      0.800670000000     0.425440000000     0.451910000000    -0.122151   
N        N      0.755530000000     0.353840000000     0.434910000000    -0.122151   
N        N      0.568990000000     0.992690000000     0.577500000000    -0.122151   
N        N      0.699330000000     0.074560000000     0.451910000000    -0.122151   
N        N      0.744470000000     0.146160000000     0.434910000000    -0.122151   
N        N      0.507310000000     0.568990000000     0.077500000000    -0.122151   
N        N      0.425440000000     0.699330000000     0.951910000000    -0.122151   
N        N      0.353840000000     0.744470000000     0.934910000000    -0.122151   
N        N      0.992690000000     0.931010000000     0.077500000000    -0.122151   
N        N      0.074560000000     0.800670000000     0.951910000000    -0.122151   
N        N      0.146160000000     0.755530000000     0.934910000000    -0.122151   
N        N      0.931010000000     0.992690000000     0.077500000000    -0.122151   
N        N      0.800670000000     0.074560000000     0.951910000000    -0.122151   
N        N      0.755530000000     0.146160000000     0.934910000000    -0.122151   
N        N      0.568990000000     0.507310000000     0.077500000000    -0.122151   
N        N      0.699330000000     0.425440000000     0.951910000000    -0.122151   
N        N      0.744470000000     0.353840000000     0.934910000000    -0.122151   
N        N      0.507310000000     0.931010000000     0.577500000000    -0.122151   
N        N      0.425440000000     0.800670000000     0.451910000000    -0.122151   
N        N      0.353840000000     0.755530000000     0.434910000000    -0.122151   
N        N      0.992690000000     0.568990000000     0.577500000000    -0.122151   
N        N      0.074560000000     0.699330000000     0.451910000000    -0.122151   
N        N      0.146160000000     0.744470000000     0.434910000000    -0.122151   
N        N      0.068990000000     0.492690000000     0.422500000000    -0.122151   
N        N      0.199330000000     0.574560000000     0.548090000000    -0.122151   
N        N      0.244470000000     0.646160000000     0.565090000000    -0.122151   
N        N      0.431010000000     0.007310000000     0.422500000000    -0.122151   
N        N      0.300670000000     0.925440000000     0.548090000000    -0.122151   
N        N      0.255530000000     0.853840000000     0.565090000000    -0.122151   
N        N      0.492690000000     0.431010000000     0.922500000000    -0.122151   
N        N      0.574560000000     0.300670000000     0.048090000000    -0.122151   
N        N      0.646160000000     0.255530000000     0.065090000000    -0.122151   
N        N      0.007310000000     0.068990000000     0.922500000000    -0.122151   
N        N      0.925440000000     0.199330000000     0.048090000000    -0.122151   
N        N      0.853840000000     0.244470000000     0.065090000000    -0.122151   


