data_UVAROZ_original

_audit_creation_method RASPA-1.0
_audit_creation_date 2022-1-29
_audit_author_name 'Felipe Lopes de Oliveira <felipe.lopes.oliveira@ibm.com>'

_cell_length_a    8.666
_cell_length_b    13.187
_cell_length_c    14.0833
_cell_angle_alpha 62.0839
_cell_angle_beta  84.118
_cell_angle_gamma 77.3561
_cell_volume      1387.65

_symmetry_cell_setting          triclinic
_symmetry_space_group_name_Hall 'P 1'
_symmetry_space_group_name_H-M  'P 1'
_symmetry_Int_Tables_number     1

_symmetry_equiv_pos_as_xyz 'x,y,z'

loop_
_atom_site_label
_atom_site_type_symbol
_atom_site_fract_x
_atom_site_fract_y
_atom_site_fract_z
_atom_site_charge
Zn       Zn     0.798450000000     0.100490000000     0.823600000000     0.416794   
Zn       Zn     0.298450000000     0.924090000000     0.176400000000     0.416794   
H        H      0.068300000000     0.100400000000     0.470000000000     0.0563336  
H        H      0.311000000000     0.053200000000     0.395800000000     0.0563336  
H        H      0.533100000000     0.979500000000     0.665800000000     0.0563336  
H        H      0.283800000000     0.016100000000     0.742800000000     0.0563336  
H        H      0.689400000000     0.982100000000     0.520000000000     0.0563336  
H        H      0.543300000000     0.992600000000     0.347800000000     0.0563336  
H        H      0.706600000000     0.997900000000     0.196600000000     0.0563336  
H        H      0.960100000000     0.968800000000     0.123600000000     0.0563336  
H        H      0.167100000000     0.897100000000     0.388800000000     0.0563336  
H        H      0.927800000000     0.932200000000     0.465400000000     0.0563336  
H        H      0.449100000000     0.265300000000     0.919200000000     0.0563336  
H        H      0.536200000000     0.441900000000     0.858400000000     0.0563336  
H        H      0.507100000000     0.402900000000     0.160200000000     0.0563336  
H        H      0.423000000000     0.230500000000     0.222600000000     0.0563336  
H        H      0.608400000000     0.589400000000     0.886600000000     0.0563336  
H        H      0.587500000000     0.564600000000     0.093600000000     0.0563336  
H        H      0.719400000000     0.740000000000     0.823800000000     0.0563336  
H        H      0.796900000000     0.916600000000     0.770600000000     0.0563336  
H        H      0.678400000000     0.918200000000     0.046600000000     0.0563336  
H        H      0.617800000000     0.732500000000     0.111800000000     0.0563336  
H        H      0.568300000000     0.570400000000     0.530000000000     0.0563336  
H        H      0.811000000000     0.449000000000     0.604200000000     0.0563336  
H        H      0.033100000000     0.645300000000     0.334200000000     0.0563336  
H        H      0.783800000000     0.758900000000     0.257200000000     0.0563336  
H        H      0.189400000000     0.502100000000     0.480000000000     0.0563336  
H        H      0.043300000000     0.340400000000     0.652200000000     0.0563336  
H        H      0.206600000000     0.194500000000     0.803400000000     0.0563336  
H        H      0.460100000000     0.092400000000     0.876400000000     0.0563336  
H        H      0.667100000000     0.285900000000     0.611200000000     0.0563336  
H        H      0.427800000000     0.397600000000     0.534600000000     0.0563336  
H        H      0.949100000000     0.184500000000     0.080800000000     0.0563336  
H        H      0.036200000000     0.300300000000     0.141600000000     0.0563336  
H        H      0.007100000000     0.563100000000     0.839800000000     0.0563336  
H        H      0.923000000000     0.453100000000     0.777400000000     0.0563336  
H        H      0.108400000000     0.476000000000     0.113400000000     0.0563336  
H        H      0.087500000000     0.658200000000     0.906400000000     0.0563336  
H        H      0.219400000000     0.563800000000     0.176200000000     0.0563336  
H        H      0.296900000000     0.687200000000     0.229400000000     0.0563336  
H        H      0.178400000000     0.964800000000     0.953400000000     0.0563336  
H        H      0.117800000000     0.844300000000     0.888200000000     0.0563336  
C        C      0.001500000000     0.081600000000     0.665000000000    -0.00305646 
C        C      0.156600000000     0.057500000000     0.614200000000    -0.00305646 
C        C      0.162800000000     0.073000000000     0.510600000000    -0.00305646 
C        C      0.307500000000     0.048400000000     0.465400000000    -0.00305646 
C        C      0.447500000000     0.016800000000     0.521800000000    -0.00305646 
C        C      0.439000000000     0.003300000000     0.625400000000    -0.00305646 
C        C      0.289800000000     0.024700000000     0.671800000000    -0.00305646 
C        C      0.600900000000     0.993200000000     0.479200000000    -0.00305646 
C        C      0.631800000000     0.985200000000     0.386800000000    -0.00305646 
C        C      0.788100000000     0.966100000000     0.340800000000    -0.00305646 
C        C      0.798800000000     0.978400000000     0.237400000000    -0.00305646 
C        C      0.952700000000     0.960600000000     0.194400000000    -0.00305646 
C        C      0.072900000000     0.920000000000     0.348800000000    -0.00305646 
C        C      0.930700000000     0.938300000000     0.395400000000    -0.00305646 
C        C      0.373200000000     0.116100000000     0.118600000000    -0.00305646 
C        C      0.424800000000     0.229800000000     0.077200000000    -0.00305646 
C        C      0.460300000000     0.293500000000     0.968600000000    -0.00305646 
C        C      0.512200000000     0.399000000000     0.932400000000    -0.00305646 
C        C      0.529000000000     0.441500000000     0.002800000000    -0.00305646 
C        C      0.494700000000     0.375100000000     0.110800000000    -0.00305646 
C        C      0.444700000000     0.273000000000     0.148200000000    -0.00305646 
C        C      0.585400000000     0.551800000000     0.961200000000    -0.00305646 
C        C      0.607300000000     0.603800000000     0.018600000000    -0.00305646 
C        C      0.659400000000     0.716900000000     0.977000000000    -0.00305646 
C        C      0.712800000000     0.772900000000     0.871800000000    -0.00305646 
C        C      0.755700000000     0.878900000000     0.841000000000    -0.00305646 
C        C      0.690100000000     0.880700000000     0.002200000000    -0.00305646 
C        C      0.651300000000     0.771100000000     0.039400000000    -0.00305646 
C        C      0.501500000000     0.746600000000     0.335000000000    -0.00305646 
C        C      0.656600000000     0.671700000000     0.385800000000    -0.00305646 
C        C      0.662800000000     0.583600000000     0.489400000000    -0.00305646 
C        C      0.807500000000     0.513800000000     0.534600000000    -0.00305646 
C        C      0.947500000000     0.538600000000     0.478200000000    -0.00305646 
C        C      0.939000000000     0.628700000000     0.374600000000    -0.00305646 
C        C      0.789800000000     0.696500000000     0.328200000000    -0.00305646 
C        C      0.100900000000     0.472400000000     0.520800000000    -0.00305646 
C        C      0.131800000000     0.372000000000     0.613200000000    -0.00305646 
C        C      0.288100000000     0.306900000000     0.659200000000    -0.00305646 
C        C      0.298800000000     0.215800000000     0.762600000000    -0.00305646 
C        C      0.452700000000     0.155000000000     0.805600000000    -0.00305646 
C        C      0.572900000000     0.268800000000     0.651200000000    -0.00305646 
C        C      0.430700000000     0.333700000000     0.604600000000    -0.00305646 
C        C      0.873200000000     0.234700000000     0.881400000000    -0.00305646 
C        C      0.924800000000     0.307000000000     0.922800000000    -0.00305646 
C        C      0.960300000000     0.262100000000     0.031400000000    -0.00305646 
C        C      0.012200000000     0.331400000000     0.067600000000    -0.00305646 
C        C      0.029000000000     0.444300000000     0.997200000000    -0.00305646 
C        C      0.994700000000     0.485900000000     0.889200000000    -0.00305646 
C        C      0.944700000000     0.421200000000     0.851800000000    -0.00305646 
C        C      0.085400000000     0.513000000000     0.038800000000    -0.00305646 
C        C      0.107300000000     0.622400000000     0.981400000000    -0.00305646 
C        C      0.159400000000     0.693900000000     0.023000000000    -0.00305646 
C        C      0.212800000000     0.644700000000     0.128200000000    -0.00305646 
C        C      0.255700000000     0.719900000000     0.159000000000    -0.00305646 
C        C      0.190100000000     0.882900000000     0.997800000000    -0.00305646 
C        C      0.151300000000     0.810500000000     0.960600000000    -0.00305646 
N        N      0.083600000000     0.933800000000     0.246000000000    -0.171363   
N        N      0.744300000000     0.931700000000     0.901200000000    -0.171363   
N        N      0.583600000000     0.179800000000     0.754000000000    -0.171363   
N        N      0.244300000000     0.832900000000     0.098800000000    -0.171363   
O        O      0.004300000000     0.067000000000     0.760200000000    -0.27879    
O        O      0.874400000000     0.108500000000     0.612800000000    -0.27879    
O        O      0.355000000000     0.075600000000     0.055200000000    -0.27879    
O        O      0.334300000000     0.067700000000     0.216600000000    -0.27879    
O        O      0.504300000000     0.827200000000     0.239800000000    -0.27879    
O        O      0.374400000000     0.721300000000     0.387200000000    -0.27879    
O        O      0.855000000000     0.130800000000     0.944800000000    -0.27879    
O        O      0.834300000000     0.284300000000     0.783400000000    -0.27879    


