data_UVARIT_original

_audit_creation_method RASPA-1.0
_audit_creation_date 2022-1-31
_audit_author_name 'Felipe Lopes de Oliveira <felipe.lopes.oliveira@ibm.com>'

_cell_length_a    8.409
_cell_length_b    13.488
_cell_length_c    14.1302
_cell_angle_alpha 61.4924
_cell_angle_beta  85.7574
_cell_angle_gamma 81.0829
_cell_volume      1391.32

_symmetry_cell_setting          triclinic
_symmetry_space_group_name_Hall 'P 1'
_symmetry_space_group_name_H-M  'P 1'
_symmetry_Int_Tables_number     1

_symmetry_equiv_pos_as_xyz 'x,y,z'

loop_
_atom_site_label
_atom_site_type_symbol
_atom_site_fract_x
_atom_site_fract_y
_atom_site_fract_z
_atom_site_charge
Zn       Zn     0.478110000000     0.617760000000     0.182400000000     0.417645   
Zn       Zn     0.978110000000     0.800160000000     0.817600000000     0.417645   
H        H      0.983600000000     0.465800000000     0.258600000000     0.0564439  
H        H      0.222300000000     0.350400000000     0.333600000000     0.0564439  
H        H      0.982900000000     0.145300000000     0.597000000000     0.0564439  
H        H      0.742000000000     0.259300000000     0.521000000000     0.0564439  
H        H      0.377300000000     0.190100000000     0.472000000000     0.0564439  
H        H      0.215600000000     0.047000000000     0.651600000000     0.0564439  
H        H      0.384000000000     0.910600000000     0.804400000000     0.0564439  
H        H      0.630700000000     0.806300000000     0.877400000000     0.0564439  
H        H      0.842000000000     0.968000000000     0.597600000000     0.0564439  
H        H      0.603300000000     0.075900000000     0.518400000000     0.0564439  
H        H      0.618100000000     0.964900000000     0.922600000000     0.0564439  
H        H      0.700700000000     0.144800000000     0.860200000000     0.0564439  
H        H      0.672100000000     0.103400000000     0.162800000000     0.0564439  
H        H      0.587700000000     0.928600000000     0.224200000000     0.0564439  
H        H      0.785200000000     0.289300000000     0.890000000000     0.0564439  
H        H      0.747800000000     0.267200000000     0.094200000000     0.0564439  
H        H      0.904300000000     0.435600000000     0.829800000000     0.0564439  
H        H      0.983300000000     0.616400000000     0.766400000000     0.0564439  
H        H      0.851100000000     0.616700000000     0.040800000000     0.0564439  
H        H      0.783200000000     0.435400000000     0.111200000000     0.0564439  
H        H      0.483600000000     0.724400000000     0.741400000000     0.0564439  
H        H      0.722300000000     0.684000000000     0.666400000000     0.0564439  
H        H      0.482900000000     0.742300000000     0.403000000000     0.0564439  
H        H      0.242000000000     0.780300000000     0.479000000000     0.0564439  
H        H      0.877300000000     0.662100000000     0.528000000000     0.0564439  
H        H      0.715600000000     0.698600000000     0.348400000000     0.0564439  
H        H      0.884000000000     0.715000000000     0.195600000000     0.0564439  
H        H      0.130700000000     0.683700000000     0.122600000000     0.0564439  
H        H      0.342000000000     0.565600000000     0.402400000000     0.0564439  
H        H      0.103300000000     0.594300000000     0.481600000000     0.0564439  
H        H      0.118100000000     0.887500000000     0.077400000000     0.0564439  
H        H      0.200700000000     0.005000000000     0.139800000000     0.0564439  
H        H      0.172100000000     0.266200000000     0.837200000000     0.0564439  
H        H      0.087700000000     0.152800000000     0.775800000000     0.0564439  
H        H      0.285200000000     0.179300000000     0.110000000000     0.0564439  
H        H      0.247800000000     0.361400000000     0.905800000000     0.0564439  
H        H      0.404300000000     0.265400000000     0.170200000000     0.0564439  
H        H      0.483300000000     0.382800000000     0.233600000000     0.0564439  
H        H      0.351100000000     0.657500000000     0.959200000000     0.0564439  
H        H      0.283200000000     0.546600000000     0.888800000000     0.0564439  
C        C      0.681700000000     0.446800000000     0.334400000000    -0.00311351 
C        C      0.838100000000     0.374500000000     0.382200000000    -0.00311351 
C        C      0.982900000000     0.400400000000     0.327400000000    -0.00311351 
C        C      0.124800000000     0.331700000000     0.372400000000    -0.00311351 
C        C      0.129800000000     0.236300000000     0.472400000000    -0.00311351 
C        C      0.983200000000     0.210200000000     0.528000000000    -0.00311351 
C        C      0.840000000000     0.278200000000     0.483000000000    -0.00311351 
C        C      0.285000000000     0.166100000000     0.515600000000    -0.00311351 
C        C      0.308300000000     0.072700000000     0.609400000000    -0.00311351 
C        C      0.464500000000     0.005200000000     0.653800000000    -0.00311351 
C        C      0.477200000000     0.924000000000     0.760200000000    -0.00311351 
C        C      0.625000000000     0.861600000000     0.803400000000    -0.00311351 
C        C      0.747100000000     0.956300000000     0.640200000000    -0.00311351 
C        C      0.605700000000     0.020800000000     0.592600000000    -0.00311351 
C        C      0.538600000000     0.813300000000     0.122600000000    -0.00311351 
C        C      0.592400000000     0.929600000000     0.079000000000    -0.00311351 
C        C      0.628200000000     0.993200000000     0.971600000000    -0.00311351 
C        C      0.679700000000     0.100200000000     0.934600000000    -0.00311351 
C        C      0.700100000000     0.140800000000     0.005200000000    -0.00311351 
C        C      0.662100000000     0.075400000000     0.113600000000    -0.00311351 
C        C      0.611000000000     0.972100000000     0.150000000000    -0.00311351 
C        C      0.757400000000     0.252000000000     0.964200000000    -0.00311351 
C        C      0.773800000000     0.304800000000     0.019800000000    -0.00311351 
C        C      0.828800000000     0.416900000000     0.977400000000    -0.00311351 
C        C      0.892400000000     0.471400000000     0.874200000000    -0.00311351 
C        C      0.938900000000     0.580100000000     0.836600000000    -0.00311351 
C        C      0.863500000000     0.579900000000     0.997200000000    -0.00311351 
C        C      0.819900000000     0.472200000000     0.038800000000    -0.00311351 
C        C      0.181700000000     0.781200000000     0.665600000000    -0.00311351 
C        C      0.338100000000     0.756700000000     0.617800000000    -0.00311351 
C        C      0.482900000000     0.727800000000     0.672600000000    -0.00311351 
C        C      0.624800000000     0.704100000000     0.627600000000    -0.00311351 
C        C      0.629800000000     0.708700000000     0.527600000000    -0.00311351 
C        C      0.483200000000     0.738200000000     0.472000000000    -0.00311351 
C        C      0.340000000000     0.761200000000     0.517000000000    -0.00311351 
C        C      0.785000000000     0.681700000000     0.484400000000    -0.00311351 
C        C      0.808300000000     0.682100000000     0.390600000000    -0.00311351 
C        C      0.964500000000     0.659000000000     0.346200000000    -0.00311351 
C        C      0.977200000000     0.684200000000     0.239800000000    -0.00311351 
C        C      0.125000000000     0.665000000000     0.196600000000    -0.00311351 
C        C      0.247100000000     0.596500000000     0.359800000000    -0.00311351 
C        C      0.105700000000     0.613400000000     0.407400000000    -0.00311351 
C        C      0.038600000000     0.935900000000     0.877400000000    -0.00311351 
C        C      0.092400000000     0.008600000000     0.921000000000    -0.00311351 
C        C      0.128200000000     0.964800000000     0.028400000000    -0.00311351 
C        C      0.179700000000     0.034800000000     0.065400000000    -0.00311351 
C        C      0.200100000000     0.146000000000     0.994800000000    -0.00311351 
C        C      0.162100000000     0.189000000000     0.886400000000    -0.00311351 
C        C      0.111000000000     0.122100000000     0.850000000000    -0.00311351 
C        C      0.257400000000     0.216200000000     0.035800000000    -0.00311351 
C        C      0.273800000000     0.324600000000     0.980200000000    -0.00311351 
C        C      0.328800000000     0.394300000000     0.022600000000    -0.00311351 
C        C      0.392400000000     0.345600000000     0.125800000000    -0.00311351 
C        C      0.438900000000     0.416700000000     0.163400000000    -0.00311351 
C        C      0.363500000000     0.577100000000     0.002800000000    -0.00311351 
C        C      0.319900000000     0.511000000000     0.961200000000    -0.00311351 
N        N      0.759300000000     0.876700000000     0.744600000000    -0.167132   
N        N      0.922800000000     0.634500000000     0.896800000000    -0.167132   
N        N      0.259300000000     0.621300000000     0.255400000000    -0.167132   
N        N      0.422800000000     0.531300000000     0.103200000000    -0.167132   
O        O      0.689200000000     0.529920000000     0.238160000000    -0.28127    
O        O      0.554000000000     0.423360000000     0.383880000000    -0.28127    
O        O      0.525000000000     0.773610000000     0.058180000000    -0.28127    
O        O      0.515400000000     0.758500000000     0.221400000000    -0.28127    
O        O      0.189200000000     0.768080000000     0.761840000000    -0.28127    
O        O      0.054000000000     0.807240000000     0.616120000000    -0.28127    
O        O      0.025000000000     0.831790000000     0.941820000000    -0.28127    
O        O      0.015400000000     0.979900000000     0.778600000000    -0.28127    


