data_UVASAM_original

_audit_creation_method RASPA-1.0
_audit_creation_date 2022-1-30
_audit_author_name 'Felipe Lopes de Oliveira <felipe.lopes.oliveira@ibm.com>'

_cell_length_a    8.406
_cell_length_b    13.507
_cell_length_c    14.1361
_cell_angle_alpha 61.4615
_cell_angle_beta  85.7892
_cell_angle_gamma 81.1591
_cell_volume      1393.24

_symmetry_cell_setting          triclinic
_symmetry_space_group_name_Hall 'P 1'
_symmetry_space_group_name_H-M  'P 1'
_symmetry_Int_Tables_number     1

_symmetry_equiv_pos_as_xyz 'x,y,z'

loop_
_atom_site_label
_atom_site_type_symbol
_atom_site_fract_x
_atom_site_fract_y
_atom_site_fract_z
_atom_site_charge
Zn       Zn     0.833620000000     0.920300000000     0.182740000000     0.417408   
Zn       Zn     0.333620000000     0.103040000000     0.817260000000     0.417408   
H        H      0.839900000000     0.024300000000     0.740600000000     0.0589234  
H        H      0.079000000000     0.989600000000     0.665800000000     0.0589234  
H        H      0.841200000000     0.042100000000     0.407400000000     0.0589234  
H        H      0.599900000000     0.081900000000     0.480600000000     0.0589234  
H        H      0.230800000000     0.966200000000     0.527200000000     0.0589234  
H        H      0.074000000000     0.999700000000     0.349200000000     0.0589234  
H        H      0.457400000000     0.894700000000     0.482200000000     0.0589234  
H        H      0.697100000000     0.866200000000     0.402200000000     0.0589234  
H        H      0.486700000000     0.990300000000     0.125000000000     0.0589234  
H        H      0.240200000000     0.017200000000     0.196000000000     0.0589234  
H        H      0.465800000000     0.194900000000     0.075200000000     0.0589234  
H        H      0.551900000000     0.307200000000     0.138600000000     0.0589234  
H        H      0.532700000000     0.567000000000     0.837200000000     0.0589234  
H        H      0.446700000000     0.454900000000     0.776200000000     0.0589234  
H        H      0.636400000000     0.484600000000     0.107600000000     0.0589234  
H        H      0.606300000000     0.665800000000     0.906000000000     0.0589234  
H        H      0.640500000000     0.847200000000     0.889200000000     0.0589234  
H        H      0.705300000000     0.959700000000     0.961600000000     0.0589234  
H        H      0.840200000000     0.686900000000     0.230200000000     0.0589234  
H        H      0.758100000000     0.570600000000     0.169800000000     0.0589234  
H        H      0.339900000000     0.764900000000     0.259400000000     0.0589234  
H        H      0.579000000000     0.655400000000     0.334200000000     0.0589234  
H        H      0.341200000000     0.449500000000     0.592600000000     0.0589234  
H        H      0.099900000000     0.562500000000     0.519400000000     0.0589234  
H        H      0.730800000000     0.493400000000     0.472800000000     0.0589234  
H        H      0.574000000000     0.348900000000     0.650800000000     0.0589234  
H        H      0.957400000000     0.376900000000     0.517800000000     0.0589234  
H        H      0.197100000000     0.268400000000     0.597800000000     0.0589234  
H        H      0.986700000000     0.115300000000     0.875000000000     0.0589234  
H        H      0.740200000000     0.213200000000     0.804000000000     0.0589234  
H        H      0.965800000000     0.270100000000     0.924800000000     0.0589234  
H        H      0.051900000000     0.445800000000     0.861400000000     0.0589234  
H        H      0.032700000000     0.404200000000     0.162800000000     0.0589234  
H        H      0.946700000000     0.231100000000     0.223800000000     0.0589234  
H        H      0.136400000000     0.592200000000     0.892400000000     0.0589234  
H        H      0.106300000000     0.571800000000     0.094000000000     0.0589234  
H        H      0.140500000000     0.736400000000     0.110800000000     0.0589234  
H        H      0.205300000000     0.921300000000     0.038400000000     0.0589234  
H        H      0.340200000000     0.917100000000     0.769800000000     0.0589234  
H        H      0.258100000000     0.740400000000     0.830200000000     0.0589234  
C        C      0.540500000000     0.082100000000     0.666000000000    -0.00496874 
C        C      0.694300000000     0.058500000000     0.618600000000    -0.00496874 
C        C      0.839800000000     0.029200000000     0.672800000000    -0.00496874 
C        C      0.983200000000     0.007200000000     0.628600000000    -0.00496874 
C        C      0.985500000000     0.011300000000     0.527000000000    -0.00496874 
C        C      0.841600000000     0.039100000000     0.474400000000    -0.00496874 
C        C      0.695500000000     0.063000000000     0.518400000000    -0.00496874 
C        C      0.140500000000     0.984600000000     0.484600000000    -0.00496874 
C        C      0.164300000000     0.984200000000     0.390800000000    -0.00496874 
C        C      0.323400000000     0.961300000000     0.346800000000    -0.00496874 
C        C      0.460800000000     0.914200000000     0.409600000000    -0.00496874 
C        C      0.603900000000     0.897100000000     0.360800000000    -0.00496874 
C        C      0.479800000000     0.969300000000     0.198000000000    -0.00496874 
C        C      0.331800000000     0.987800000000     0.239000000000    -0.00496874 
C        C      0.395400000000     0.240400000000     0.877400000000    -0.00496874 
C        C      0.447000000000     0.311000000000     0.920000000000    -0.00496874 
C        C      0.479400000000     0.269700000000     0.027000000000    -0.00496874 
C        C      0.532200000000     0.336700000000     0.065600000000    -0.00496874 
C        C      0.555000000000     0.447800000000     0.994000000000    -0.00496874 
C        C      0.520400000000     0.491900000000     0.885200000000    -0.00496874 
C        C      0.468400000000     0.424900000000     0.849000000000    -0.00496874 
C        C      0.611500000000     0.520200000000     0.034600000000    -0.00496874 
C        C      0.630300000000     0.629000000000     0.979200000000    -0.00496874 
C        C      0.686100000000     0.696700000000     0.023600000000    -0.00496874 
C        C      0.675500000000     0.813400000000     0.960000000000    -0.00496874 
C        C      0.718300000000     0.881000000000     0.003200000000    -0.00496874 
C        C      0.794700000000     0.720200000000     0.162000000000    -0.00496874 
C        C      0.747700000000     0.648900000000     0.125600000000    -0.00496874 
C        C      0.040500000000     0.748100000000     0.334000000000    -0.00496874 
C        C      0.194300000000     0.677100000000     0.381400000000    -0.00496874 
C        C      0.339800000000     0.702000000000     0.327200000000    -0.00496874 
C        C      0.483200000000     0.635800000000     0.371400000000    -0.00496874 
C        C      0.485500000000     0.538300000000     0.473000000000    -0.00496874 
C        C      0.341600000000     0.513500000000     0.525600000000    -0.00496874 
C        C      0.195500000000     0.581400000000     0.481600000000    -0.00496874 
C        C      0.640500000000     0.469200000000     0.515400000000    -0.00496874 
C        C      0.664300000000     0.375000000000     0.609200000000    -0.00496874 
C        C      0.823400000000     0.308100000000     0.653200000000    -0.00496874 
C        C      0.960800000000     0.323800000000     0.590400000000    -0.00496874 
C        C      0.103900000000     0.257900000000     0.639200000000    -0.00496874 
C        C      0.979800000000     0.167300000000     0.802000000000    -0.00496874 
C        C      0.831800000000     0.226800000000     0.761000000000    -0.00496874 
C        C      0.895400000000     0.117800000000     0.122600000000    -0.00496874 
C        C      0.947000000000     0.231000000000     0.080000000000    -0.00496874 
C        C      0.979400000000     0.296700000000     0.973000000000    -0.00496874 
C        C      0.032200000000     0.402300000000     0.934400000000    -0.00496874 
C        C      0.055000000000     0.441800000000     0.006000000000    -0.00496874 
C        C      0.020400000000     0.377100000000     0.114800000000    -0.00496874 
C        C      0.968400000000     0.273900000000     0.151000000000    -0.00496874 
C        C      0.111500000000     0.554800000000     0.965400000000    -0.00496874 
C        C      0.130300000000     0.608200000000     0.020800000000    -0.00496874 
C        C      0.186100000000     0.720300000000     0.976400000000    -0.00496874 
C        C      0.175500000000     0.773400000000     0.040000000000    -0.00496874 
C        C      0.218300000000     0.884200000000     0.996800000000    -0.00496874 
C        C      0.294700000000     0.882200000000     0.838000000000    -0.00496874 
C        C      0.247700000000     0.774500000000     0.874400000000    -0.00496874 
N        N      0.614200000000     0.923100000000     0.256400000000    -0.171968   
N        N      0.777300000000     0.833100000000     0.103600000000    -0.171968   
N        N      0.114200000000     0.179500000000     0.743600000000    -0.171968   
N        N      0.277300000000     0.936700000000     0.896400000000    -0.171968   
O        O      0.546500000000     0.070700000000     0.762400000000    -0.278204   
O        O      0.410600000000     0.109800000000     0.616800000000    -0.278204   
O        O      0.379200000000     0.135500000000     0.941800000000    -0.278204   
O        O      0.371000000000     0.281400000000     0.778600000000    -0.278204   
O        O      0.046500000000     0.833100000000     0.237600000000    -0.278204   
O        O      0.910600000000     0.726600000000     0.383200000000    -0.278204   
O        O      0.879200000000     0.077300000000     0.058200000000    -0.278204   
O        O      0.871000000000     0.060000000000     0.221400000000    -0.278204   


