data_UVUQAE_original

_audit_creation_method RASPA-1.0
_audit_creation_date 2022-1-31
_audit_author_name 'Felipe Lopes de Oliveira <felipe.lopes.oliveira@ibm.com>'

_cell_length_a    15.0855
_cell_length_b    15.0855
_cell_length_c    21.515
_cell_angle_alpha 83.8672
_cell_angle_beta  83.8672
_cell_angle_gamma 65.5556
_cell_volume      4421.21

_symmetry_cell_setting          triclinic
_symmetry_space_group_name_Hall 'P 1'
_symmetry_space_group_name_H-M  'P 1'
_symmetry_Int_Tables_number     1

_symmetry_equiv_pos_as_xyz 'x,y,z'

loop_
_atom_site_label
_atom_site_type_symbol
_atom_site_fract_x
_atom_site_fract_y
_atom_site_fract_z
_atom_site_charge
Zn       Zn     0.009650000000     0.012850000000     0.681470000000     0.459181   
Zn       Zn     0.951840000000     0.432360000000     0.006100000000     0.459181   
Zn       Zn     0.987150000000     0.990350000000     0.818530000000     0.459181   
Zn       Zn     0.567640000000     0.048160000000     0.493900000000     0.459181   
Zn       Zn     0.990350000000     0.987150000000     0.318530000000     0.459181   
Zn       Zn     0.048160000000     0.567640000000     0.993900000000     0.459181   
Zn       Zn     0.012850000000     0.009650000000     0.181470000000     0.459181   
Zn       Zn     0.432360000000     0.951840000000     0.506100000000     0.459181   
H        H      0.677800000000     0.103000000000     0.836100000000     0.0685992  
H        H      0.512200000000     0.152000000000     0.839200000000     0.0685992  
H        H      0.533000000000     0.112400000000     0.656600000000     0.0685992  
H        H      0.699800000000     0.062600000000     0.653500000000     0.0685992  
H        H      0.263100000000     0.409300000000     0.863800000000     0.0685992  
H        H      0.391300000000     0.314700000000     0.797300000000     0.0685992  
H        H      0.263300000000     0.130300000000     0.792200000000     0.0685992  
H        H      0.132900000000     0.228100000000     0.857200000000     0.0685992  
H        H      0.111900000000     0.558700000000     0.621900000000     0.0685992  
H        H      0.087100000000     0.718300000000     0.632900000000     0.0685992  
H        H      0.038300000000     0.681100000000     0.818000000000     0.0685992  
H        H      0.068600000000     0.520400000000     0.809300000000     0.0685992  
H        H      0.208800000000     0.150400000000     0.633000000000     0.0685992  
H        H      0.094400000000     0.277800000000     0.687100000000     0.0685992  
H        H      0.269500000000     0.421300000000     0.654800000000     0.0685992  
H        H      0.381600000000     0.293600000000     0.599700000000     0.0685992  
H        H      0.938900000000     0.252100000000     0.076500000000     0.0685992  
H        H      0.825700000000     0.189300000000     0.108100000000     0.0685992  
H        H      0.665800000000     0.275200000000     0.080600000000     0.0685992  
H        H      0.744800000000     0.481000000000     0.991900000000     0.0685992  
H        H      0.897000000000     0.322200000000     0.663900000000     0.0685992  
H        H      0.848000000000     0.487800000000     0.660800000000     0.0685992  
H        H      0.887600000000     0.467000000000     0.843400000000     0.0685992  
H        H      0.937400000000     0.300200000000     0.846500000000     0.0685992  
H        H      0.590700000000     0.736900000000     0.636200000000     0.0685992  
H        H      0.685300000000     0.608700000000     0.702700000000     0.0685992  
H        H      0.869700000000     0.736700000000     0.707800000000     0.0685992  
H        H      0.771900000000     0.867100000000     0.642800000000     0.0685992  
H        H      0.441300000000     0.888100000000     0.878100000000     0.0685992  
H        H      0.281700000000     0.912900000000     0.867100000000     0.0685992  
H        H      0.318900000000     0.961700000000     0.682000000000     0.0685992  
H        H      0.479600000000     0.931400000000     0.690700000000     0.0685992  
H        H      0.849600000000     0.791200000000     0.867000000000     0.0685992  
H        H      0.722200000000     0.905600000000     0.812900000000     0.0685992  
H        H      0.578700000000     0.730500000000     0.845200000000     0.0685992  
H        H      0.706400000000     0.618400000000     0.900300000000     0.0685992  
H        H      0.747900000000     0.061100000000     0.423500000000     0.0685992  
H        H      0.810700000000     0.174300000000     0.391900000000     0.0685992  
H        H      0.724800000000     0.334200000000     0.419400000000     0.0685992  
H        H      0.519000000000     0.255200000000     0.508100000000     0.0685992  
H        H      0.322200000000     0.897000000000     0.163900000000     0.0685992  
H        H      0.487800000000     0.848000000000     0.160800000000     0.0685992  
H        H      0.467000000000     0.887600000000     0.343400000000     0.0685992  
H        H      0.300200000000     0.937400000000     0.346500000000     0.0685992  
H        H      0.736900000000     0.590700000000     0.136200000000     0.0685992  
H        H      0.608700000000     0.685300000000     0.202700000000     0.0685992  
H        H      0.736700000000     0.869700000000     0.207800000000     0.0685992  
H        H      0.867100000000     0.771900000000     0.142800000000     0.0685992  
H        H      0.888100000000     0.441300000000     0.378100000000     0.0685992  
H        H      0.912900000000     0.281700000000     0.367100000000     0.0685992  
H        H      0.961700000000     0.318900000000     0.182000000000     0.0685992  
H        H      0.931400000000     0.479600000000     0.190700000000     0.0685992  
H        H      0.791200000000     0.849600000000     0.367000000000     0.0685992  
H        H      0.905600000000     0.722200000000     0.312900000000     0.0685992  
H        H      0.730500000000     0.578700000000     0.345200000000     0.0685992  
H        H      0.618400000000     0.706400000000     0.400300000000     0.0685992  
H        H      0.061100000000     0.747900000000     0.923500000000     0.0685992  
H        H      0.174300000000     0.810700000000     0.891900000000     0.0685992  
H        H      0.334200000000     0.724800000000     0.919400000000     0.0685992  
H        H      0.255200000000     0.519000000000     0.008100000000     0.0685992  
H        H      0.103000000000     0.677800000000     0.336100000000     0.0685992  
H        H      0.152000000000     0.512200000000     0.339200000000     0.0685992  
H        H      0.112400000000     0.533000000000     0.156600000000     0.0685992  
H        H      0.062600000000     0.699800000000     0.153500000000     0.0685992  
H        H      0.409300000000     0.263100000000     0.363800000000     0.0685992  
H        H      0.314700000000     0.391300000000     0.297300000000     0.0685992  
H        H      0.130300000000     0.263300000000     0.292200000000     0.0685992  
H        H      0.228100000000     0.132900000000     0.357200000000     0.0685992  
H        H      0.558700000000     0.111900000000     0.121900000000     0.0685992  
H        H      0.718300000000     0.087100000000     0.132900000000     0.0685992  
H        H      0.681100000000     0.038300000000     0.318000000000     0.0685992  
H        H      0.520400000000     0.068600000000     0.309300000000     0.0685992  
H        H      0.150400000000     0.208800000000     0.133000000000     0.0685992  
H        H      0.277800000000     0.094400000000     0.187100000000     0.0685992  
H        H      0.421300000000     0.269500000000     0.154800000000     0.0685992  
H        H      0.293600000000     0.381600000000     0.099700000000     0.0685992  
H        H      0.252100000000     0.938900000000     0.576500000000     0.0685992  
H        H      0.189300000000     0.825700000000     0.608100000000     0.0685992  
H        H      0.275200000000     0.665800000000     0.580600000000     0.0685992  
H        H      0.481000000000     0.744800000000     0.491900000000     0.0685992  
C        C      0.706590000000     0.079990000000     0.744060000000     0.0320363  
C        C      0.648600000000     0.105600000000     0.799660000000     0.0320363  
C        C      0.549860000000     0.134260000000     0.801830000000     0.0320363  
C        C      0.506540000000     0.136540000000     0.748080000000     0.0320363  
C        C      0.562580000000     0.110380000000     0.692830000000     0.0320363  
C        C      0.662220000000     0.081420000000     0.690860000000     0.0320363  
C        C      0.815740000000     0.046140000000     0.744060000000     0.0320363  
C        C      0.186240000000     0.326520000000     0.868650000000     0.0320363  
C        C      0.262890000000     0.353290000000     0.849700000000     0.0320363  
C        C      0.339710000000     0.296710000000     0.809600000000     0.0320363  
C        C      0.339080000000     0.213880000000     0.788310000000     0.0320363  
C        C      0.263260000000     0.186460000000     0.806200000000     0.0320363  
C        C      0.185500000000     0.244900000000     0.846020000000     0.0320363  
C        C      0.106360000000     0.386700000000     0.913650000000     0.0320363  
C        C      0.094140000000     0.523940000000     0.715400000000     0.0320363  
C        C      0.098440000000     0.583240000000     0.661400000000     0.0320363  
C        C      0.082440000000     0.678640000000     0.668180000000     0.0320363  
C        C      0.059670000000     0.716490000000     0.726070000000     0.0320363  
C        C      0.054200000000     0.656000000000     0.778710000000     0.0320363  
C        C      0.071800000000     0.560200000000     0.773750000000     0.0320363  
C        C      0.039140000000     0.821940000000     0.732300000000     0.0320363  
C        C      0.305550000000     0.209690000000     0.610000000000     0.0320363  
C        C      0.220490000000     0.205290000000     0.636950000000     0.0320363  
C        C      0.152300000000     0.280900000000     0.669700000000     0.0320363  
C        C      0.171640000000     0.361640000000     0.676200000000     0.0320363  
C        C      0.256980000000     0.366980000000     0.650200000000     0.0320363  
C        C      0.323700000000     0.290700000000     0.617200000000     0.0320363  
C        C      0.378670000000     0.126950000000     0.573770000000     0.0320363  
C        C      0.586770000000     0.448970000000     0.014800000000     0.0320363  
C        C      0.875120000000     0.286720000000     0.065300000000     0.0320363  
C        C      0.807730000000     0.248730000000     0.084600000000     0.0320363  
C        C      0.712650000000     0.300050000000     0.068600000000     0.0320363  
C        C      0.687610000000     0.389610000000     0.034030000000     0.0320363  
C        C      0.760510000000     0.421970000000     0.015730000000     0.0320363  
C        C      0.920010000000     0.293410000000     0.755940000000     0.0320363  
C        C      0.894400000000     0.351400000000     0.700340000000     0.0320363  
C        C      0.865740000000     0.450140000000     0.698170000000     0.0320363  
C        C      0.863460000000     0.493460000000     0.751920000000     0.0320363  
C        C      0.889620000000     0.437420000000     0.807170000000     0.0320363  
C        C      0.918580000000     0.337780000000     0.809140000000     0.0320363  
C        C      0.953860000000     0.184260000000     0.755940000000     0.0320363  
C        C      0.673480000000     0.813760000000     0.631350000000     0.0320363  
C        C      0.646710000000     0.737110000000     0.650300000000     0.0320363  
C        C      0.703290000000     0.660290000000     0.690400000000     0.0320363  
C        C      0.786120000000     0.660920000000     0.711690000000     0.0320363  
C        C      0.813540000000     0.736740000000     0.693800000000     0.0320363  
C        C      0.755100000000     0.814500000000     0.653980000000     0.0320363  
C        C      0.613300000000     0.893640000000     0.586350000000     0.0320363  
C        C      0.476060000000     0.905860000000     0.784600000000     0.0320363  
C        C      0.416760000000     0.901560000000     0.838600000000     0.0320363  
C        C      0.321360000000     0.917560000000     0.831820000000     0.0320363  
C        C      0.283510000000     0.940330000000     0.773930000000     0.0320363  
C        C      0.344000000000     0.945800000000     0.721290000000     0.0320363  
C        C      0.439800000000     0.928200000000     0.726250000000     0.0320363  
C        C      0.178060000000     0.960860000000     0.767700000000     0.0320363  
C        C      0.790310000000     0.694450000000     0.890000000000     0.0320363  
C        C      0.794710000000     0.779510000000     0.863050000000     0.0320363  
C        C      0.719100000000     0.847700000000     0.830300000000     0.0320363  
C        C      0.638360000000     0.828360000000     0.823800000000     0.0320363  
C        C      0.633020000000     0.743020000000     0.849800000000     0.0320363  
C        C      0.709300000000     0.676300000000     0.882800000000     0.0320363  
C        C      0.873050000000     0.621330000000     0.926230000000     0.0320363  
C        C      0.551030000000     0.413230000000     0.485200000000     0.0320363  
C        C      0.713280000000     0.124880000000     0.434700000000     0.0320363  
C        C      0.751270000000     0.192270000000     0.415400000000     0.0320363  
C        C      0.699950000000     0.287350000000     0.431400000000     0.0320363  
C        C      0.610390000000     0.312390000000     0.465970000000     0.0320363  
C        C      0.578030000000     0.239490000000     0.484270000000     0.0320363  
C        C      0.293410000000     0.920010000000     0.255940000000     0.0320363  
C        C      0.351400000000     0.894400000000     0.200340000000     0.0320363  
C        C      0.450140000000     0.865740000000     0.198170000000     0.0320363  
C        C      0.493460000000     0.863460000000     0.251920000000     0.0320363  
C        C      0.437420000000     0.889620000000     0.307170000000     0.0320363  
C        C      0.337780000000     0.918580000000     0.309140000000     0.0320363  
C        C      0.184260000000     0.953860000000     0.255940000000     0.0320363  
C        C      0.813760000000     0.673480000000     0.131350000000     0.0320363  
C        C      0.737110000000     0.646710000000     0.150300000000     0.0320363  
C        C      0.660290000000     0.703290000000     0.190400000000     0.0320363  
C        C      0.660920000000     0.786120000000     0.211690000000     0.0320363  
C        C      0.736740000000     0.813540000000     0.193800000000     0.0320363  
C        C      0.814500000000     0.755100000000     0.153980000000     0.0320363  
C        C      0.893640000000     0.613300000000     0.086350000000     0.0320363  
C        C      0.905860000000     0.476060000000     0.284600000000     0.0320363  
C        C      0.901560000000     0.416760000000     0.338600000000     0.0320363  
C        C      0.917560000000     0.321360000000     0.331820000000     0.0320363  
C        C      0.940330000000     0.283510000000     0.273930000000     0.0320363  
C        C      0.945800000000     0.344000000000     0.221290000000     0.0320363  
C        C      0.928200000000     0.439800000000     0.226250000000     0.0320363  
C        C      0.960860000000     0.178060000000     0.267700000000     0.0320363  
C        C      0.694450000000     0.790310000000     0.390000000000     0.0320363  
C        C      0.779510000000     0.794710000000     0.363050000000     0.0320363  
C        C      0.847700000000     0.719100000000     0.330300000000     0.0320363  
C        C      0.828360000000     0.638360000000     0.323800000000     0.0320363  
C        C      0.743020000000     0.633020000000     0.349800000000     0.0320363  
C        C      0.676300000000     0.709300000000     0.382800000000     0.0320363  
C        C      0.621330000000     0.873050000000     0.426230000000     0.0320363  
C        C      0.413230000000     0.551030000000     0.985200000000     0.0320363  
C        C      0.124880000000     0.713280000000     0.934700000000     0.0320363  
C        C      0.192270000000     0.751270000000     0.915400000000     0.0320363  
C        C      0.287350000000     0.699950000000     0.931400000000     0.0320363  
C        C      0.312390000000     0.610390000000     0.965970000000     0.0320363  
C        C      0.239490000000     0.578030000000     0.984270000000     0.0320363  
C        C      0.079990000000     0.706590000000     0.244060000000     0.0320363  
C        C      0.105600000000     0.648600000000     0.299660000000     0.0320363  
C        C      0.134260000000     0.549860000000     0.301830000000     0.0320363  
C        C      0.136540000000     0.506540000000     0.248080000000     0.0320363  
C        C      0.110380000000     0.562580000000     0.192830000000     0.0320363  
C        C      0.081420000000     0.662220000000     0.190860000000     0.0320363  
C        C      0.046140000000     0.815740000000     0.244060000000     0.0320363  
C        C      0.326520000000     0.186240000000     0.368650000000     0.0320363  
C        C      0.353290000000     0.262890000000     0.349700000000     0.0320363  
C        C      0.296710000000     0.339710000000     0.309600000000     0.0320363  
C        C      0.213880000000     0.339080000000     0.288310000000     0.0320363  
C        C      0.186460000000     0.263260000000     0.306200000000     0.0320363  
C        C      0.244900000000     0.185500000000     0.346020000000     0.0320363  
C        C      0.386700000000     0.106360000000     0.413650000000     0.0320363  
C        C      0.523940000000     0.094140000000     0.215400000000     0.0320363  
C        C      0.583240000000     0.098440000000     0.161400000000     0.0320363  
C        C      0.678640000000     0.082440000000     0.168180000000     0.0320363  
C        C      0.716490000000     0.059670000000     0.226070000000     0.0320363  
C        C      0.656000000000     0.054200000000     0.278710000000     0.0320363  
C        C      0.560200000000     0.071800000000     0.273750000000     0.0320363  
C        C      0.821940000000     0.039140000000     0.232300000000     0.0320363  
C        C      0.209690000000     0.305550000000     0.110000000000     0.0320363  
C        C      0.205290000000     0.220490000000     0.136950000000     0.0320363  
C        C      0.280900000000     0.152300000000     0.169700000000     0.0320363  
C        C      0.361640000000     0.171640000000     0.176200000000     0.0320363  
C        C      0.366980000000     0.256980000000     0.150200000000     0.0320363  
C        C      0.290700000000     0.323700000000     0.117200000000     0.0320363  
C        C      0.126950000000     0.378670000000     0.073770000000     0.0320363  
C        C      0.448970000000     0.586770000000     0.514800000000     0.0320363  
C        C      0.286720000000     0.875120000000     0.565300000000     0.0320363  
C        C      0.248730000000     0.807730000000     0.584600000000     0.0320363  
C        C      0.300050000000     0.712650000000     0.568600000000     0.0320363  
C        C      0.389610000000     0.687610000000     0.534030000000     0.0320363  
C        C      0.421970000000     0.760510000000     0.515730000000     0.0320363  
N        N      0.517420000000     0.419120000000     0.039120000000    -0.111974   
N        N      0.571880000000     0.527680000000     0.976300000000    -0.111974   
N        N      0.853350000000     0.371150000000     0.031080000000    -0.111974   
N        N      0.580880000000     0.482580000000     0.460880000000    -0.111974   
N        N      0.472320000000     0.428120000000     0.523700000000    -0.111974   
N        N      0.628850000000     0.146650000000     0.468920000000    -0.111974   
N        N      0.482580000000     0.580880000000     0.960880000000    -0.111974   
N        N      0.428120000000     0.472320000000     0.023700000000    -0.111974   
N        N      0.146650000000     0.628850000000     0.968920000000    -0.111974   
N        N      0.419120000000     0.517420000000     0.539120000000    -0.111974   
N        N      0.527680000000     0.571880000000     0.476300000000    -0.111974   
N        N      0.371150000000     0.853350000000     0.531080000000    -0.111974   
O        O      0.409300000000     0.156600000000     0.745860000000    -0.304366   
O        O      0.864370000000     0.034310000000     0.692240000000    -0.304366   
O        O      0.849880000000     0.033580000000     0.796980000000    -0.304366   
O        O      0.041870000000     0.354910000000     0.935510000000    -0.304366   
O        O      0.108240000000     0.463360000000     0.928640000000    -0.304366   
O        O      0.101900000000     0.429680000000     0.714070000000    -0.304366   
O        O      0.046480000000     0.870820000000     0.681870000000    -0.304366   
O        O      0.016710000000     0.853990000000     0.785920000000    -0.304366   
O        O      0.353660000000     0.059180000000     0.563760000000    -0.304366   
O        O      0.459850000000     0.129930000000     0.554990000000    -0.304366   
O        O      0.843400000000     0.590700000000     0.754140000000    -0.304366   
O        O      0.965690000000     0.135630000000     0.807760000000    -0.304366   
O        O      0.966420000000     0.150120000000     0.703020000000    -0.304366   
O        O      0.645090000000     0.958130000000     0.564490000000    -0.304366   
O        O      0.536640000000     0.891760000000     0.571360000000    -0.304366   
O        O      0.570320000000     0.898100000000     0.785930000000    -0.304366   
O        O      0.129180000000     0.953520000000     0.818130000000    -0.304366   
O        O      0.146010000000     0.983290000000     0.714080000000    -0.304366   
O        O      0.940820000000     0.646340000000     0.936240000000    -0.304366   
O        O      0.870070000000     0.540150000000     0.945010000000    -0.304366   
O        O      0.590700000000     0.843400000000     0.254140000000    -0.304366   
O        O      0.135630000000     0.965690000000     0.307760000000    -0.304366   
O        O      0.150120000000     0.966420000000     0.203020000000    -0.304366   
O        O      0.958130000000     0.645090000000     0.064490000000    -0.304366   
O        O      0.891760000000     0.536640000000     0.071360000000    -0.304366   
O        O      0.898100000000     0.570320000000     0.285930000000    -0.304366   
O        O      0.953520000000     0.129180000000     0.318130000000    -0.304366   
O        O      0.983290000000     0.146010000000     0.214080000000    -0.304366   
O        O      0.646340000000     0.940820000000     0.436240000000    -0.304366   
O        O      0.540150000000     0.870070000000     0.445010000000    -0.304366   
O        O      0.156600000000     0.409300000000     0.245860000000    -0.304366   
O        O      0.034310000000     0.864370000000     0.192240000000    -0.304366   
O        O      0.033580000000     0.849880000000     0.296980000000    -0.304366   
O        O      0.354910000000     0.041870000000     0.435510000000    -0.304366   
O        O      0.463360000000     0.108240000000     0.428640000000    -0.304366   
O        O      0.429680000000     0.101900000000     0.214070000000    -0.304366   
O        O      0.870820000000     0.046480000000     0.181870000000    -0.304366   
O        O      0.853990000000     0.016710000000     0.285920000000    -0.304366   
O        O      0.059180000000     0.353660000000     0.063760000000    -0.304366   
O        O      0.129930000000     0.459850000000     0.054990000000    -0.304366   


