data_UWELIS_original

_audit_creation_method RASPA-1.0
_audit_creation_date 2022-1-30
_audit_author_name 'Felipe Lopes de Oliveira <felipe.lopes.oliveira@ibm.com>'

_cell_length_a    13.265
_cell_length_b    13.983
_cell_length_c    14.189
_cell_angle_alpha 112.066
_cell_angle_beta  90
_cell_angle_gamma 90
_cell_volume      2439.06

_symmetry_cell_setting          triclinic
_symmetry_space_group_name_Hall 'P 1'
_symmetry_space_group_name_H-M  'P 1'
_symmetry_Int_Tables_number     1

_symmetry_equiv_pos_as_xyz 'x,y,z'

loop_
_atom_site_label
_atom_site_type_symbol
_atom_site_fract_x
_atom_site_fract_y
_atom_site_fract_z
_atom_site_charge
Zn       Zn     0.553140000000     0.400330000000     0.948970000000     0.46801    
Zn       Zn     0.053140000000     0.599670000000     0.551030000000     0.46801    
Zn       Zn     0.446860000000     0.599670000000     0.051030000000     0.46801    
Zn       Zn     0.946860000000     0.400330000000     0.448970000000     0.46801    
H        H      0.257700000000     0.722500000000     0.087800000000     0.0796074  
H        H      0.205900000000     0.894900000000     0.153800000000     0.0796074  
H        H      0.493200000000     0.986000000000     0.215100000000     0.0796074  
H        H      0.542500000000     0.814300000000     0.159500000000     0.0796074  
H        H      0.439900000000     0.256800000000     0.135500000000     0.0796074  
H        H      0.289900000000     0.517800000000     0.290800000000     0.0796074  
H        H      0.238200000000     0.260100000000     0.347900000000     0.0796074  
H        H      0.429500000000     0.117700000000     0.199200000000     0.0796074  
H        H      0.757700000000     0.277500000000     0.412200000000     0.0796074  
H        H      0.705900000000     0.105100000000     0.346200000000     0.0796074  
H        H      0.993200000000     0.014000000000     0.284900000000     0.0796074  
H        H      0.042500000000     0.185700000000     0.340500000000     0.0796074  
H        H      0.939900000000     0.743200000000     0.364500000000     0.0796074  
H        H      0.789900000000     0.482200000000     0.209200000000     0.0796074  
H        H      0.738200000000     0.739900000000     0.152100000000     0.0796074  
H        H      0.929500000000     0.882300000000     0.300800000000     0.0796074  
H        H      0.742300000000     0.277500000000     0.912200000000     0.0796074  
H        H      0.794100000000     0.105100000000     0.846200000000     0.0796074  
H        H      0.506800000000     0.014000000000     0.784900000000     0.0796074  
H        H      0.457500000000     0.185700000000     0.840500000000     0.0796074  
H        H      0.560100000000     0.743200000000     0.864500000000     0.0796074  
H        H      0.710100000000     0.482200000000     0.709200000000     0.0796074  
H        H      0.761800000000     0.739900000000     0.652100000000     0.0796074  
H        H      0.570500000000     0.882300000000     0.800800000000     0.0796074  
H        H      0.242300000000     0.722500000000     0.587800000000     0.0796074  
H        H      0.294100000000     0.894900000000     0.653800000000     0.0796074  
H        H      0.006800000000     0.986000000000     0.715100000000     0.0796074  
H        H      0.957500000000     0.814300000000     0.659500000000     0.0796074  
H        H      0.060100000000     0.256800000000     0.635500000000     0.0796074  
H        H      0.210100000000     0.517800000000     0.790800000000     0.0796074  
H        H      0.261800000000     0.260100000000     0.847900000000     0.0796074  
H        H      0.070500000000     0.117700000000     0.699200000000     0.0796074  
C        C      0.304700000000     0.775100000000     0.115200000000     0.0463767  
C        C      0.273900000000     0.878600000000     0.153200000000     0.0463767  
C        C      0.344000000000     0.955300000000     0.189400000000     0.0463767  
C        C      0.445800000000     0.933400000000     0.191400000000     0.0463767  
C        C      0.474800000000     0.830500000000     0.156900000000     0.0463767  
C        C      0.304700000000     0.065600000000     0.225400000000     0.0463767  
C        C      0.344500000000     0.241800000000     0.238300000000     0.0463767  
C        C      0.393300000000     0.292500000000     0.185300000000     0.0463767  
C        C      0.374800000000     0.395900000000     0.204500000000     0.0463767  
C        C      0.303100000000     0.448700000000     0.277800000000     0.0463767  
C        C      0.251900000000     0.399600000000     0.330800000000     0.0463767  
C        C      0.272100000000     0.293900000000     0.312000000000     0.0463767  
C        C      0.423700000000     0.443800000000     0.137300000000     0.0463767  
C        C      0.167000000000     0.448100000000     0.402100000000     0.0463767  
C        C      0.804700000000     0.224900000000     0.384800000000     0.0463767  
C        C      0.773900000000     0.121400000000     0.346800000000     0.0463767  
C        C      0.844000000000     0.044700000000     0.310600000000     0.0463767  
C        C      0.945800000000     0.066600000000     0.308600000000     0.0463767  
C        C      0.974800000000     0.169500000000     0.343100000000     0.0463767  
C        C      0.804700000000     0.934400000000     0.274600000000     0.0463767  
C        C      0.844500000000     0.758200000000     0.261700000000     0.0463767  
C        C      0.893300000000     0.707500000000     0.314700000000     0.0463767  
C        C      0.874800000000     0.604100000000     0.295500000000     0.0463767  
C        C      0.803100000000     0.551300000000     0.222200000000     0.0463767  
C        C      0.751900000000     0.600400000000     0.169200000000     0.0463767  
C        C      0.772100000000     0.706100000000     0.188000000000     0.0463767  
C        C      0.923700000000     0.556200000000     0.362700000000     0.0463767  
C        C      0.667000000000     0.551900000000     0.097900000000     0.0463767  
C        C      0.695300000000     0.224900000000     0.884800000000     0.0463767  
C        C      0.726100000000     0.121400000000     0.846800000000     0.0463767  
C        C      0.656000000000     0.044700000000     0.810600000000     0.0463767  
C        C      0.554200000000     0.066600000000     0.808600000000     0.0463767  
C        C      0.525200000000     0.169500000000     0.843100000000     0.0463767  
C        C      0.695300000000     0.934400000000     0.774600000000     0.0463767  
C        C      0.655500000000     0.758200000000     0.761700000000     0.0463767  
C        C      0.606700000000     0.707500000000     0.814700000000     0.0463767  
C        C      0.625200000000     0.604100000000     0.795500000000     0.0463767  
C        C      0.696900000000     0.551300000000     0.722200000000     0.0463767  
C        C      0.748100000000     0.600400000000     0.669200000000     0.0463767  
C        C      0.727900000000     0.706100000000     0.688000000000     0.0463767  
C        C      0.576300000000     0.556200000000     0.862700000000     0.0463767  
C        C      0.833000000000     0.551900000000     0.597900000000     0.0463767  
C        C      0.195300000000     0.775100000000     0.615200000000     0.0463767  
C        C      0.226100000000     0.878600000000     0.653200000000     0.0463767  
C        C      0.156000000000     0.955300000000     0.689400000000     0.0463767  
C        C      0.054200000000     0.933400000000     0.691400000000     0.0463767  
C        C      0.025200000000     0.830500000000     0.656900000000     0.0463767  
C        C      0.195300000000     0.065600000000     0.725400000000     0.0463767  
C        C      0.155500000000     0.241800000000     0.738300000000     0.0463767  
C        C      0.106700000000     0.292500000000     0.685300000000     0.0463767  
C        C      0.125200000000     0.395900000000     0.704500000000     0.0463767  
C        C      0.196900000000     0.448700000000     0.777800000000     0.0463767  
C        C      0.248100000000     0.399600000000     0.830800000000     0.0463767  
C        C      0.227900000000     0.293900000000     0.812000000000     0.0463767  
C        C      0.076300000000     0.443800000000     0.637300000000     0.0463767  
C        C      0.333000000000     0.448100000000     0.902100000000     0.0463767  
N        N      0.405900000000     0.751880000000     0.118830000000    -0.195961   
N        N      0.368760000000     0.137130000000     0.217920000000    -0.195961   
N        N      0.905900000000     0.248120000000     0.381170000000    -0.195961   
N        N      0.868760000000     0.862870000000     0.282080000000    -0.195961   
N        N      0.594100000000     0.248120000000     0.881170000000    -0.195961   
N        N      0.631240000000     0.862870000000     0.782080000000    -0.195961   
N        N      0.094100000000     0.751880000000     0.618830000000    -0.195961   
N        N      0.131240000000     0.137130000000     0.717920000000    -0.195961   
O        O      0.216720000000     0.082000000000     0.252480000000    -0.272444   
O        O      0.486720000000     0.390670000000     0.076090000000    -0.272444   
O        O      0.397240000000     0.534400000000     0.149200000000    -0.272444   
O        O      0.176530000000     0.540680000000     0.461510000000    -0.272444   
O        O      0.091740000000     0.394070000000     0.397680000000    -0.272444   
O        O      0.716720000000     0.918000000000     0.247520000000    -0.272444   
O        O      0.986720000000     0.609330000000     0.423910000000    -0.272444   
O        O      0.897240000000     0.465600000000     0.350800000000    -0.272444   
O        O      0.676530000000     0.459320000000     0.038490000000    -0.272444   
O        O      0.591740000000     0.605930000000     0.102320000000    -0.272444   
O        O      0.783280000000     0.918000000000     0.747520000000    -0.272444   
O        O      0.513280000000     0.609330000000     0.923910000000    -0.272444   
O        O      0.602760000000     0.465600000000     0.850800000000    -0.272444   
O        O      0.823470000000     0.459320000000     0.538490000000    -0.272444   
O        O      0.908260000000     0.605930000000     0.602320000000    -0.272444   
O        O      0.283280000000     0.082000000000     0.752480000000    -0.272444   
O        O      0.013280000000     0.390670000000     0.576090000000    -0.272444   
O        O      0.102760000000     0.534400000000     0.649200000000    -0.272444   
O        O      0.323470000000     0.540680000000     0.961510000000    -0.272444   
O        O      0.408260000000     0.394070000000     0.897680000000    -0.272444   


