data_UWUTIQ_original

_audit_creation_method RASPA-1.0
_audit_creation_date 2022-1-31
_audit_author_name 'Felipe Lopes de Oliveira <felipe.lopes.oliveira@ibm.com>'

_cell_length_a    10.896
_cell_length_b    19.698
_cell_length_c    21.554
_cell_angle_alpha 90
_cell_angle_beta  100.48
_cell_angle_gamma 90
_cell_volume      4548.95

_symmetry_cell_setting          triclinic
_symmetry_space_group_name_Hall 'P 1'
_symmetry_space_group_name_H-M  'P 1'
_symmetry_Int_Tables_number     1

_symmetry_equiv_pos_as_xyz 'x,y,z'

loop_
_atom_site_label
_atom_site_type_symbol
_atom_site_fract_x
_atom_site_fract_y
_atom_site_fract_z
_atom_site_charge
Zn       Zn     0.645120000000     0.050680000000     0.634650000000     0.467708   
Zn       Zn     0.684600000000     0.947720000000     0.734910000000     0.467708   
Zn       Zn     0.645120000000     0.449320000000     0.134650000000     0.467708   
Zn       Zn     0.684600000000     0.552280000000     0.234910000000     0.467708   
Zn       Zn     0.354880000000     0.550680000000     0.865350000000     0.467708   
Zn       Zn     0.315400000000     0.447720000000     0.765090000000     0.467708   
Zn       Zn     0.354880000000     0.949320000000     0.365350000000     0.467708   
Zn       Zn     0.315400000000     0.052280000000     0.265090000000     0.467708   
H        H      0.636200000000     0.912700000000     0.484800000000     0.0533013  
H        H      0.688600000000     0.763700000000     0.613900000000     0.0533013  
H        H      0.638400000000     0.834000000000     0.405700000000     0.0533013  
H        H      0.091800000000     0.921700000000     0.751900000000     0.0533013  
H        H      0.300300000000     0.921200000000     0.742500000000     0.0533013  
H        H      0.660100000000     0.302300000000     0.111900000000     0.0533013  
H        H      0.765600000000     0.093400000000     0.886500000000     0.0533013  
H        H      0.661400000000     0.382200000000     0.913100000000     0.0533013  
H        H      0.594600000000     0.227300000000     0.759400000000     0.0533013  
H        H      0.666600000000     0.226000000000     0.033100000000     0.0533013  
H        H      0.697500000000     0.684800000000     0.535000000000     0.0533013  
H        H      0.027000000000     0.074700000000     0.627100000000     0.0533013  
H        H      0.586700000000     0.304400000000     0.839700000000     0.0533013  
H        H      0.233900000000     0.072100000000     0.615600000000     0.0533013  
H        H      0.798400000000     0.636700000000     0.456900000000     0.0533013  
H        H      0.650800000000     0.454600000000     0.995100000000     0.0533013  
H        H      0.761200000000     0.171700000000     0.965100000000     0.0533013  
H        H      0.805700000000     0.566500000000     0.371800000000     0.0533013  
H        H      0.551400000000     0.673200000000     0.265300000000     0.0533013  
H        H      0.539600000000     0.745900000000     0.346300000000     0.0533013  
H        H      0.636200000000     0.587300000000     0.984800000000     0.0533013  
H        H      0.688600000000     0.736300000000     0.113900000000     0.0533013  
H        H      0.638400000000     0.666000000000     0.905700000000     0.0533013  
H        H      0.091800000000     0.578300000000     0.251900000000     0.0533013  
H        H      0.300300000000     0.578800000000     0.242500000000     0.0533013  
H        H      0.660100000000     0.197700000000     0.611900000000     0.0533013  
H        H      0.765600000000     0.406600000000     0.386500000000     0.0533013  
H        H      0.661400000000     0.117800000000     0.413100000000     0.0533013  
H        H      0.594600000000     0.272700000000     0.259400000000     0.0533013  
H        H      0.666600000000     0.274000000000     0.533100000000     0.0533013  
H        H      0.697500000000     0.815200000000     0.035000000000     0.0533013  
H        H      0.027000000000     0.425300000000     0.127100000000     0.0533013  
H        H      0.586700000000     0.195600000000     0.339700000000     0.0533013  
H        H      0.233900000000     0.427900000000     0.115600000000     0.0533013  
H        H      0.798400000000     0.863300000000     0.956900000000     0.0533013  
H        H      0.650800000000     0.045400000000     0.495100000000     0.0533013  
H        H      0.761200000000     0.328300000000     0.465100000000     0.0533013  
H        H      0.805700000000     0.933500000000     0.871800000000     0.0533013  
H        H      0.551400000000     0.826800000000     0.765300000000     0.0533013  
H        H      0.539600000000     0.754100000000     0.846300000000     0.0533013  
H        H      0.363800000000     0.412700000000     0.015200000000     0.0533013  
H        H      0.311400000000     0.263700000000     0.886100000000     0.0533013  
H        H      0.361600000000     0.334000000000     0.094300000000     0.0533013  
H        H      0.908200000000     0.421700000000     0.748100000000     0.0533013  
H        H      0.699700000000     0.421200000000     0.757500000000     0.0533013  
H        H      0.339900000000     0.802300000000     0.388100000000     0.0533013  
H        H      0.234400000000     0.593400000000     0.613500000000     0.0533013  
H        H      0.338600000000     0.882200000000     0.586900000000     0.0533013  
H        H      0.405400000000     0.727300000000     0.740600000000     0.0533013  
H        H      0.333400000000     0.726000000000     0.466900000000     0.0533013  
H        H      0.302500000000     0.184800000000     0.965000000000     0.0533013  
H        H      0.973000000000     0.574700000000     0.872900000000     0.0533013  
H        H      0.413300000000     0.804400000000     0.660300000000     0.0533013  
H        H      0.766100000000     0.572100000000     0.884400000000     0.0533013  
H        H      0.201600000000     0.136700000000     0.043100000000     0.0533013  
H        H      0.349200000000     0.954600000000     0.504900000000     0.0533013  
H        H      0.238800000000     0.671700000000     0.534900000000     0.0533013  
H        H      0.194300000000     0.066500000000     0.128200000000     0.0533013  
H        H      0.448600000000     0.173200000000     0.234700000000     0.0533013  
H        H      0.460400000000     0.245900000000     0.153700000000     0.0533013  
H        H      0.363800000000     0.087300000000     0.515200000000     0.0533013  
H        H      0.311400000000     0.236300000000     0.386100000000     0.0533013  
H        H      0.361600000000     0.166000000000     0.594300000000     0.0533013  
H        H      0.908200000000     0.078300000000     0.248100000000     0.0533013  
H        H      0.699700000000     0.078800000000     0.257500000000     0.0533013  
H        H      0.339900000000     0.697700000000     0.888100000000     0.0533013  
H        H      0.234400000000     0.906600000000     0.113500000000     0.0533013  
H        H      0.338600000000     0.617800000000     0.086900000000     0.0533013  
H        H      0.405400000000     0.772700000000     0.240600000000     0.0533013  
H        H      0.333400000000     0.774000000000     0.966900000000     0.0533013  
H        H      0.302500000000     0.315200000000     0.465000000000     0.0533013  
H        H      0.973000000000     0.925300000000     0.372900000000     0.0533013  
H        H      0.413300000000     0.695600000000     0.160300000000     0.0533013  
H        H      0.766100000000     0.927900000000     0.384400000000     0.0533013  
H        H      0.201600000000     0.363300000000     0.543100000000     0.0533013  
H        H      0.349200000000     0.545400000000     0.004900000000     0.0533013  
H        H      0.238800000000     0.828300000000     0.034900000000     0.0533013  
H        H      0.194300000000     0.433500000000     0.628200000000     0.0533013  
H        H      0.448600000000     0.326800000000     0.734700000000     0.0533013  
H        H      0.460400000000     0.254100000000     0.653700000000     0.0533013  
C        C      0.663100000000     0.846800000000     0.557100000000     0.0207545  
C        C      0.669800000000     0.751200000000     0.462060000000     0.0207545  
C        C      0.673500000000     0.701700000000     0.409990000000     0.0207545  
C        C      0.673500000000     0.151100000000     0.814240000000     0.0207545  
C        C      0.038200000000     0.998100000000     0.690300000000     0.0207545  
C        C      0.648000000000     0.867000000000     0.494960000000     0.0207545  
C        C      0.425200000000     0.998400000000     0.674710000000     0.0207545  
C        C      0.658400000000     0.898600000000     0.607910000000     0.0207545  
C        C      0.680200000000     0.777800000000     0.572100000000     0.0207545  
C        C      0.669000000000     0.245600000000     0.911300000000     0.0207545  
C        C      0.665100000000     0.294800000000     0.962800000000     0.0207545  
C        C      0.650100000000     0.819800000000     0.447540000000     0.0207545  
C        C      0.672300000000     0.098300000000     0.762960000000     0.0207545  
C        C      0.120500000000     0.952200000000     0.724900000000     0.0207545  
C        C      0.245400000000     0.951900000000     0.719200000000     0.0207545  
C        C      0.288500000000     0.997200000000     0.678800000000     0.0207545  
C        C      0.902100000000     0.998000000000     0.694900000000     0.0207545  
C        C      0.659500000000     0.318400000000     0.071300000000     0.0207545  
C        C      0.727800000000     0.135400000000     0.876800000000     0.0207545  
C        C      0.660500000000     0.364700000000     0.953100000000     0.0207545  
C        C      0.625200000000     0.215000000000     0.801000000000     0.0207545  
C        C      0.664100000000     0.272200000000     0.024200000000     0.0207545  
C        C      0.684600000000     0.730400000000     0.524800000000     0.0207545  
C        C      0.081500000000     0.043600000000     0.649900000000     0.0207545  
C        C      0.621600000000     0.261700000000     0.849400000000     0.0207545  
C        C      0.205700000000     0.042500000000     0.643500000000     0.0207545  
C        C      0.749400000000     0.646100000000     0.417800000000     0.0207545  
C        C      0.654600000000     0.408100000000     0.002780000000     0.0207545  
C        C      0.724800000000     0.182500000000     0.923800000000     0.0207545  
C        C      0.752100000000     0.603700000000     0.366400000000     0.0207545  
C        C      0.603600000000     0.666200000000     0.304000000000     0.0207545  
C        C      0.596400000000     0.710200000000     0.352400000000     0.0207545  
C        C      0.663100000000     0.653200000000     0.057100000000     0.0207545  
C        C      0.669800000000     0.748800000000     0.962060000000     0.0207545  
C        C      0.673500000000     0.798300000000     0.909990000000     0.0207545  
C        C      0.673500000000     0.348900000000     0.314240000000     0.0207545  
C        C      0.038200000000     0.501900000000     0.190300000000     0.0207545  
C        C      0.648000000000     0.633000000000     0.994960000000     0.0207545  
C        C      0.425200000000     0.501600000000     0.174710000000     0.0207545  
C        C      0.658400000000     0.601400000000     0.107910000000     0.0207545  
C        C      0.680200000000     0.722200000000     0.072100000000     0.0207545  
C        C      0.669000000000     0.254400000000     0.411300000000     0.0207545  
C        C      0.665100000000     0.205200000000     0.462800000000     0.0207545  
C        C      0.650100000000     0.680200000000     0.947540000000     0.0207545  
C        C      0.672300000000     0.401700000000     0.262960000000     0.0207545  
C        C      0.120500000000     0.547800000000     0.224900000000     0.0207545  
C        C      0.245400000000     0.548100000000     0.219200000000     0.0207545  
C        C      0.288500000000     0.502800000000     0.178800000000     0.0207545  
C        C      0.902100000000     0.502000000000     0.194900000000     0.0207545  
C        C      0.659500000000     0.181600000000     0.571300000000     0.0207545  
C        C      0.727800000000     0.364600000000     0.376800000000     0.0207545  
C        C      0.660500000000     0.135300000000     0.453100000000     0.0207545  
C        C      0.625200000000     0.285000000000     0.301000000000     0.0207545  
C        C      0.664100000000     0.227800000000     0.524200000000     0.0207545  
C        C      0.684600000000     0.769600000000     0.024800000000     0.0207545  
C        C      0.081500000000     0.456400000000     0.149900000000     0.0207545  
C        C      0.621600000000     0.238300000000     0.349400000000     0.0207545  
C        C      0.205700000000     0.457500000000     0.143500000000     0.0207545  
C        C      0.749400000000     0.853900000000     0.917800000000     0.0207545  
C        C      0.654600000000     0.091900000000     0.502780000000     0.0207545  
C        C      0.724800000000     0.317500000000     0.423800000000     0.0207545  
C        C      0.752100000000     0.896300000000     0.866400000000     0.0207545  
C        C      0.603600000000     0.833800000000     0.804000000000     0.0207545  
C        C      0.596400000000     0.789800000000     0.852400000000     0.0207545  
C        C      0.336900000000     0.346800000000     0.942900000000     0.0207545  
C        C      0.330200000000     0.251200000000     0.037940000000     0.0207545  
C        C      0.326500000000     0.201700000000     0.090010000000     0.0207545  
C        C      0.326500000000     0.651100000000     0.685760000000     0.0207545  
C        C      0.961800000000     0.498100000000     0.809700000000     0.0207545  
C        C      0.352000000000     0.367000000000     0.005040000000     0.0207545  
C        C      0.574800000000     0.498400000000     0.825290000000     0.0207545  
C        C      0.341600000000     0.398600000000     0.892090000000     0.0207545  
C        C      0.319800000000     0.277800000000     0.927900000000     0.0207545  
C        C      0.331000000000     0.745600000000     0.588700000000     0.0207545  
C        C      0.334900000000     0.794800000000     0.537200000000     0.0207545  
C        C      0.349900000000     0.319800000000     0.052460000000     0.0207545  
C        C      0.327700000000     0.598300000000     0.737040000000     0.0207545  
C        C      0.879500000000     0.452200000000     0.775100000000     0.0207545  
C        C      0.754600000000     0.451900000000     0.780800000000     0.0207545  
C        C      0.711500000000     0.497200000000     0.821200000000     0.0207545  
C        C      0.097900000000     0.498000000000     0.805100000000     0.0207545  
C        C      0.340500000000     0.818400000000     0.428700000000     0.0207545  
C        C      0.272200000000     0.635400000000     0.623200000000     0.0207545  
C        C      0.339500000000     0.864700000000     0.546900000000     0.0207545  
C        C      0.374800000000     0.715000000000     0.699000000000     0.0207545  
C        C      0.335900000000     0.772200000000     0.475800000000     0.0207545  
C        C      0.315400000000     0.230400000000     0.975200000000     0.0207545  
C        C      0.918500000000     0.543600000000     0.850100000000     0.0207545  
C        C      0.378400000000     0.761700000000     0.650600000000     0.0207545  
C        C      0.794300000000     0.542500000000     0.856500000000     0.0207545  
C        C      0.250600000000     0.146100000000     0.082200000000     0.0207545  
C        C      0.345400000000     0.908100000000     0.497220000000     0.0207545  
C        C      0.275200000000     0.682500000000     0.576200000000     0.0207545  
C        C      0.247900000000     0.103700000000     0.133600000000     0.0207545  
C        C      0.396400000000     0.166200000000     0.196000000000     0.0207545  
C        C      0.403600000000     0.210200000000     0.147600000000     0.0207545  
C        C      0.336900000000     0.153200000000     0.442900000000     0.0207545  
C        C      0.330200000000     0.248800000000     0.537940000000     0.0207545  
C        C      0.326500000000     0.298300000000     0.590010000000     0.0207545  
C        C      0.326500000000     0.848900000000     0.185760000000     0.0207545  
C        C      0.961800000000     0.001900000000     0.309700000000     0.0207545  
C        C      0.352000000000     0.133000000000     0.505040000000     0.0207545  
C        C      0.574800000000     0.001600000000     0.325290000000     0.0207545  
C        C      0.341600000000     0.101400000000     0.392090000000     0.0207545  
C        C      0.319800000000     0.222200000000     0.427900000000     0.0207545  
C        C      0.331000000000     0.754400000000     0.088700000000     0.0207545  
C        C      0.334900000000     0.705200000000     0.037200000000     0.0207545  
C        C      0.349900000000     0.180200000000     0.552460000000     0.0207545  
C        C      0.327700000000     0.901700000000     0.237040000000     0.0207545  
C        C      0.879500000000     0.047800000000     0.275100000000     0.0207545  
C        C      0.754600000000     0.048100000000     0.280800000000     0.0207545  
C        C      0.711500000000     0.002800000000     0.321200000000     0.0207545  
C        C      0.097900000000     0.002000000000     0.305100000000     0.0207545  
C        C      0.340500000000     0.681600000000     0.928700000000     0.0207545  
C        C      0.272200000000     0.864600000000     0.123200000000     0.0207545  
C        C      0.339500000000     0.635300000000     0.046900000000     0.0207545  
C        C      0.374800000000     0.785000000000     0.199000000000     0.0207545  
C        C      0.335900000000     0.727800000000     0.975800000000     0.0207545  
C        C      0.315400000000     0.269600000000     0.475200000000     0.0207545  
C        C      0.918500000000     0.956400000000     0.350100000000     0.0207545  
C        C      0.378400000000     0.738300000000     0.150600000000     0.0207545  
C        C      0.794300000000     0.957500000000     0.356500000000     0.0207545  
C        C      0.250600000000     0.353900000000     0.582200000000     0.0207545  
C        C      0.345400000000     0.591900000000     0.997220000000     0.0207545  
C        C      0.275200000000     0.817500000000     0.076200000000     0.0207545  
C        C      0.247900000000     0.396300000000     0.633600000000     0.0207545  
C        C      0.396400000000     0.333800000000     0.696000000000     0.0207545  
C        C      0.403600000000     0.289800000000     0.647600000000     0.0207545  
N        N      0.654200000000     0.386030000000     0.061600000000    -0.163573   
N        N      0.682100000000     0.613700000000     0.309950000000    -0.163573   
N        N      0.654200000000     0.113970000000     0.561600000000    -0.163573   
N        N      0.682100000000     0.886300000000     0.809950000000    -0.163573   
N        N      0.345800000000     0.886030000000     0.438400000000    -0.163573   
N        N      0.317900000000     0.113700000000     0.190050000000    -0.163573   
N        N      0.345800000000     0.613970000000     0.938400000000    -0.163573   
N        N      0.317900000000     0.386300000000     0.690050000000    -0.163573   
O        O      0.641100000000     0.117170000000     0.707030000000    -0.292305   
O        O      0.459200000000     0.034750000000     0.632880000000    -0.292305   
O        O      0.661400000000     0.878040000000     0.663270000000    -0.292305   
O        O      0.835100000000     0.042500000000     0.664400000000    -0.292305   
O        O      0.865500000000     0.952120000000     0.728190000000    -0.292305   
O        O      0.497300000000     0.963300000000     0.714620000000    -0.292305   
O        O      0.653000000000     0.959350000000     0.591020000000    -0.292305   
O        O      0.701800000000     0.038930000000     0.781360000000    -0.292305   
O        O      0.641100000000     0.382830000000     0.207030000000    -0.292305   
O        O      0.459200000000     0.465250000000     0.132880000000    -0.292305   
O        O      0.661400000000     0.621960000000     0.163270000000    -0.292305   
O        O      0.835100000000     0.457500000000     0.164400000000    -0.292305   
O        O      0.865500000000     0.547880000000     0.228190000000    -0.292305   
O        O      0.497300000000     0.536700000000     0.214620000000    -0.292305   
O        O      0.653000000000     0.540650000000     0.091020000000    -0.292305   
O        O      0.701800000000     0.461070000000     0.281360000000    -0.292305   
O        O      0.358900000000     0.617170000000     0.792970000000    -0.292305   
O        O      0.540800000000     0.534750000000     0.867120000000    -0.292305   
O        O      0.338600000000     0.378040000000     0.836730000000    -0.292305   
O        O      0.164900000000     0.542500000000     0.835600000000    -0.292305   
O        O      0.134500000000     0.452120000000     0.771810000000    -0.292305   
O        O      0.502700000000     0.463300000000     0.785380000000    -0.292305   
O        O      0.347000000000     0.459350000000     0.908980000000    -0.292305   
O        O      0.298200000000     0.538930000000     0.718640000000    -0.292305   
O        O      0.358900000000     0.882830000000     0.292970000000    -0.292305   
O        O      0.540800000000     0.965250000000     0.367120000000    -0.292305   
O        O      0.338600000000     0.121960000000     0.336730000000    -0.292305   
O        O      0.164900000000     0.957500000000     0.335600000000    -0.292305   
O        O      0.134500000000     0.047880000000     0.271810000000    -0.292305   
O        O      0.502700000000     0.036700000000     0.285380000000    -0.292305   
O        O      0.347000000000     0.040650000000     0.408980000000    -0.292305   
O        O      0.298200000000     0.961070000000     0.218640000000    -0.292305   


