data_UXUZAP_original

_audit_creation_method RASPA-1.0
_audit_creation_date 2022-1-29
_audit_author_name 'Felipe Lopes de Oliveira <felipe.lopes.oliveira@ibm.com>'

_cell_length_a    9.0541
_cell_length_b    10.4443
_cell_length_c    18.2006
_cell_angle_alpha 90
_cell_angle_beta  90
_cell_angle_gamma 90
_cell_volume      1721.12

_symmetry_cell_setting          triclinic
_symmetry_space_group_name_Hall 'P 1'
_symmetry_space_group_name_H-M  'P 1'
_symmetry_Int_Tables_number     1

_symmetry_equiv_pos_as_xyz 'x,y,z'

loop_
_atom_site_label
_atom_site_type_symbol
_atom_site_fract_x
_atom_site_fract_y
_atom_site_fract_z
_atom_site_charge
Zn       Zn     0.132110000000     0.018840000000     0.599690000000     0.390201   
Zn       Zn     0.632110000000     0.981160000000     0.400310000000     0.390201   
Zn       Zn     0.132110000000     0.481160000000     0.099690000000     0.390201   
Zn       Zn     0.632110000000     0.518840000000     0.900310000000     0.390201   
H        H      0.327800000000     0.038400000000     0.470200000000     0.072828   
H        H      0.727400000000     0.635500000000     0.607900000000     0.072828   
H        H      0.326600000000     0.696800000000     0.733600000000     0.072828   
H        H      0.239800000000     0.797400000000     0.694800000000     0.072828   
H        H      0.966600000000     0.684500000000     0.710900000000     0.072828   
H        H      0.852300000000     0.538500000000     0.786400000000     0.072828   
H        H      0.603900000000     0.803600000000     0.871200000000     0.072828   
H        H      0.707300000000     0.957100000000     0.795900000000     0.072828   
H        H      0.827800000000     0.961600000000     0.529800000000     0.072828   
H        H      0.227400000000     0.364500000000     0.392100000000     0.072828   
H        H      0.826600000000     0.303200000000     0.266400000000     0.072828   
H        H      0.739800000000     0.202600000000     0.305200000000     0.072828   
H        H      0.466600000000     0.315500000000     0.289100000000     0.072828   
H        H      0.352300000000     0.461500000000     0.213600000000     0.072828   
H        H      0.103900000000     0.196400000000     0.128800000000     0.072828   
H        H      0.207300000000     0.042900000000     0.204100000000     0.072828   
H        H      0.327800000000     0.461600000000     0.970200000000     0.072828   
H        H      0.727400000000     0.864500000000     0.107900000000     0.072828   
H        H      0.326600000000     0.803200000000     0.233600000000     0.072828   
H        H      0.239800000000     0.702600000000     0.194800000000     0.072828   
H        H      0.966600000000     0.815500000000     0.210900000000     0.072828   
H        H      0.852300000000     0.961500000000     0.286400000000     0.072828   
H        H      0.603900000000     0.696400000000     0.371200000000     0.072828   
H        H      0.707300000000     0.542900000000     0.295900000000     0.072828   
H        H      0.827800000000     0.538400000000     0.029800000000     0.072828   
H        H      0.227400000000     0.135500000000     0.892100000000     0.072828   
H        H      0.826600000000     0.196800000000     0.766400000000     0.072828   
H        H      0.739800000000     0.297400000000     0.805200000000     0.072828   
H        H      0.466600000000     0.184500000000     0.789100000000     0.072828   
H        H      0.352300000000     0.038500000000     0.713600000000     0.072828   
H        H      0.103900000000     0.303600000000     0.628800000000     0.072828   
H        H      0.207300000000     0.457100000000     0.704100000000     0.072828   
C        C      0.373300000000     0.975900000000     0.498800000000     0.0678245  
C        C      0.646900000000     0.689400000000     0.601000000000     0.0678245  
C        C      0.421500000000     0.757100000000     0.646100000000     0.0678245  
C        C      0.414300000000     0.841300000000     0.584310000000     0.0678245  
C        C      0.531000000000     0.838200000000     0.536350000000     0.0678245  
C        C      0.920400000000     0.934300000000     0.695600000000     0.0678245  
C        C      0.892800000000     0.710800000000     0.743100000000     0.0678245  
C        C      0.849500000000     0.837400000000     0.745900000000     0.0678245  
C        C      0.824200000000     0.624000000000     0.788900000000     0.0678245  
C        C      0.677700000000     0.779800000000     0.838500000000     0.0678245  
C        C      0.739600000000     0.872700000000     0.793700000000     0.0678245  
C        C      0.873300000000     0.024100000000     0.501200000000     0.0678245  
C        C      0.146900000000     0.310600000000     0.399000000000     0.0678245  
C        C      0.921500000000     0.242900000000     0.353900000000     0.0678245  
C        C      0.914300000000     0.158700000000     0.415690000000     0.0678245  
C        C      0.031000000000     0.161800000000     0.463650000000     0.0678245  
C        C      0.420400000000     0.065700000000     0.304400000000     0.0678245  
C        C      0.392800000000     0.289200000000     0.256900000000     0.0678245  
C        C      0.349500000000     0.162600000000     0.254100000000     0.0678245  
C        C      0.324200000000     0.376000000000     0.211100000000     0.0678245  
C        C      0.177700000000     0.220200000000     0.161500000000     0.0678245  
C        C      0.239600000000     0.127300000000     0.206300000000     0.0678245  
C        C      0.373300000000     0.524100000000     0.998800000000     0.0678245  
C        C      0.646900000000     0.810600000000     0.101000000000     0.0678245  
C        C      0.421500000000     0.742900000000     0.146100000000     0.0678245  
C        C      0.414300000000     0.658700000000     0.084310000000     0.0678245  
C        C      0.531000000000     0.661800000000     0.036350000000     0.0678245  
C        C      0.920400000000     0.565700000000     0.195600000000     0.0678245  
C        C      0.892800000000     0.789200000000     0.243100000000     0.0678245  
C        C      0.849500000000     0.662600000000     0.245900000000     0.0678245  
C        C      0.824200000000     0.876000000000     0.288900000000     0.0678245  
C        C      0.677700000000     0.720200000000     0.338500000000     0.0678245  
C        C      0.739600000000     0.627300000000     0.293700000000     0.0678245  
C        C      0.873300000000     0.475900000000     0.001200000000     0.0678245  
C        C      0.146900000000     0.189400000000     0.899000000000     0.0678245  
C        C      0.921500000000     0.257100000000     0.853900000000     0.0678245  
C        C      0.914300000000     0.341300000000     0.915690000000     0.0678245  
C        C      0.031000000000     0.338200000000     0.963650000000     0.0678245  
C        C      0.420400000000     0.434300000000     0.804400000000     0.0678245  
C        C      0.392800000000     0.210800000000     0.756900000000     0.0678245  
C        C      0.349500000000     0.337400000000     0.754100000000     0.0678245  
C        C      0.324200000000     0.124000000000     0.711100000000     0.0678245  
C        C      0.177700000000     0.279800000000     0.661500000000     0.0678245  
C        C      0.239600000000     0.372700000000     0.706300000000     0.0678245  
N        N      0.505000000000     0.926000000000     0.481010000000    -0.191536   
N        N      0.653200000000     0.763400000000     0.542240000000    -0.191536   
N        N      0.311700000000     0.930100000000     0.560100000000    -0.191536   
N        N      0.541100000000     0.681400000000     0.651650000000    -0.191536   
N        N      0.316900000000     0.749500000000     0.697600000000    -0.191536   
N        N      0.720200000000     0.657100000000     0.836340000000    -0.191536   
N        N      0.005000000000     0.074000000000     0.518990000000    -0.191536   
N        N      0.153200000000     0.236600000000     0.457760000000    -0.191536   
N        N      0.811700000000     0.069900000000     0.439900000000    -0.191536   
N        N      0.041100000000     0.318600000000     0.348350000000    -0.191536   
N        N      0.816900000000     0.250500000000     0.302400000000    -0.191536   
N        N      0.220200000000     0.342900000000     0.163660000000    -0.191536   
N        N      0.505000000000     0.574000000000     0.981010000000    -0.191536   
N        N      0.653200000000     0.736600000000     0.042240000000    -0.191536   
N        N      0.311700000000     0.569900000000     0.060100000000    -0.191536   
N        N      0.541100000000     0.818600000000     0.151650000000    -0.191536   
N        N      0.316900000000     0.750500000000     0.197600000000    -0.191536   
N        N      0.720200000000     0.842900000000     0.336340000000    -0.191536   
N        N      0.005000000000     0.426000000000     0.018990000000    -0.191536   
N        N      0.153200000000     0.263400000000     0.957760000000    -0.191536   
N        N      0.811700000000     0.430100000000     0.939900000000    -0.191536   
N        N      0.041100000000     0.181400000000     0.848350000000    -0.191536   
N        N      0.816900000000     0.249500000000     0.802400000000    -0.191536   
N        N      0.220200000000     0.157100000000     0.663660000000    -0.191536   
O        O      0.037900000000     0.893700000000     0.662840000000    -0.284838   
O        O      0.866700000000     0.040200000000     0.687350000000    -0.284838   
O        O      0.537900000000     0.106300000000     0.337160000000    -0.284838   
O        O      0.366700000000     0.959800000000     0.312650000000    -0.284838   
O        O      0.037900000000     0.606300000000     0.162840000000    -0.284838   
O        O      0.866700000000     0.459800000000     0.187350000000    -0.284838   
O        O      0.537900000000     0.393700000000     0.837160000000    -0.284838   
O        O      0.366700000000     0.540200000000     0.812650000000    -0.284838   


