data_VACFUB01_original

_audit_creation_method RASPA-1.0
_audit_creation_date 2022-1-28
_audit_author_name 'Felipe Lopes de Oliveira <felipe.lopes.oliveira@ibm.com>'

_cell_length_a    6.262
_cell_length_b    15.512
_cell_length_c    15.512
_cell_angle_alpha 120
_cell_angle_beta  90
_cell_angle_gamma 90
_cell_volume      1304.91

_symmetry_cell_setting          triclinic
_symmetry_space_group_name_Hall 'P 1'
_symmetry_space_group_name_H-M  'P 1'
_symmetry_Int_Tables_number     1

_symmetry_equiv_pos_as_xyz 'x,y,z'

loop_
_atom_site_label
_atom_site_type_symbol
_atom_site_fract_x
_atom_site_fract_y
_atom_site_fract_z
_atom_site_charge
Zn       Zn     0.850400000000     0.500000000000     0.500000000000     0.424291   
Zn       Zn     0.183730000000     0.000000000000     0.500000000000     0.424291   
Zn       Zn     0.517070000000     0.500000000000     0.000000000000     0.424291   
H        H      0.215400000000     0.723600000000     0.601900000000     0.0575214  
H        H      0.426100000000     0.597100000000     0.589000000000     0.0575214  
H        H      0.878000000000     0.665800000000     0.461900000000     0.0575214  
H        H      0.684000000000     0.797800000000     0.476700000000     0.0575214  
H        H      0.548730000000     0.878300000000     0.276400000000     0.0575214  
H        H      0.759430000000     0.991900000000     0.402900000000     0.0575214  
H        H      0.211330000000     0.796100000000     0.334200000000     0.0575214  
H        H      0.017330000000     0.678900000000     0.202200000000     0.0575214  
H        H      0.882070000000     0.398100000000     0.121700000000     0.0575214  
H        H      0.092770000000     0.411000000000     0.008100000000     0.0575214  
H        H      0.544670000000     0.538100000000     0.203900000000     0.0575214  
H        H      0.350670000000     0.523300000000     0.321100000000     0.0575214  
H        H      0.215400000000     0.276400000000     0.398100000000     0.0575214  
H        H      0.426100000000     0.402900000000     0.411000000000     0.0575214  
H        H      0.878000000000     0.334200000000     0.538100000000     0.0575214  
H        H      0.684000000000     0.202200000000     0.523300000000     0.0575214  
H        H      0.548730000000     0.121700000000     0.723600000000     0.0575214  
H        H      0.759430000000     0.008100000000     0.597100000000     0.0575214  
H        H      0.211330000000     0.203900000000     0.665800000000     0.0575214  
H        H      0.017330000000     0.321100000000     0.797800000000     0.0575214  
H        H      0.882070000000     0.601900000000     0.878300000000     0.0575214  
H        H      0.092770000000     0.589000000000     0.991900000000     0.0575214  
H        H      0.544670000000     0.461900000000     0.796100000000     0.0575214  
H        H      0.350670000000     0.476700000000     0.678900000000     0.0575214  
C        C      0.287200000000     0.856100000000     0.542300000000     0.0431084  
C        C      0.426100000000     0.773700000000     0.537900000000     0.0431084  
C        C      0.350200000000     0.713000000000     0.573100000000     0.0431084  
C        C      0.477200000000     0.637100000000     0.564700000000     0.0431084  
C        C      0.743200000000     0.678000000000     0.490800000000     0.0431084  
C        C      0.626600000000     0.756600000000     0.498400000000     0.0431084  
C        C      0.620530000000     0.686200000000     0.143900000000     0.0431084  
C        C      0.759430000000     0.764200000000     0.226300000000     0.0431084  
C        C      0.683530000000     0.860100000000     0.287000000000     0.0431084  
C        C      0.810530000000     0.927600000000     0.362900000000     0.0431084  
C        C      0.076530000000     0.812800000000     0.322000000000     0.0431084  
C        C      0.959930000000     0.741800000000     0.243400000000     0.0431084  
C        C      0.953870000000     0.457700000000     0.313800000000     0.0431084  
C        C      0.092770000000     0.462100000000     0.235800000000     0.0431084  
C        C      0.016870000000     0.426900000000     0.139900000000     0.0431084  
C        C      0.143870000000     0.435300000000     0.072400000000     0.0431084  
C        C      0.409870000000     0.509200000000     0.187200000000     0.0431084  
C        C      0.293270000000     0.501600000000     0.258200000000     0.0431084  
C        C      0.287200000000     0.143900000000     0.457700000000     0.0431084  
C        C      0.426100000000     0.226300000000     0.462100000000     0.0431084  
C        C      0.350200000000     0.287000000000     0.426900000000     0.0431084  
C        C      0.477200000000     0.362900000000     0.435300000000     0.0431084  
C        C      0.743200000000     0.322000000000     0.509200000000     0.0431084  
C        C      0.626600000000     0.243400000000     0.501600000000     0.0431084  
C        C      0.620530000000     0.313800000000     0.856100000000     0.0431084  
C        C      0.759430000000     0.235800000000     0.773700000000     0.0431084  
C        C      0.683530000000     0.139900000000     0.713000000000     0.0431084  
C        C      0.810530000000     0.072400000000     0.637100000000     0.0431084  
C        C      0.076530000000     0.187200000000     0.678000000000     0.0431084  
C        C      0.959930000000     0.258200000000     0.756600000000     0.0431084  
C        C      0.953870000000     0.542300000000     0.686200000000     0.0431084  
C        C      0.092770000000     0.537900000000     0.764200000000     0.0431084  
C        C      0.016870000000     0.573100000000     0.860100000000     0.0431084  
C        C      0.143870000000     0.564700000000     0.927600000000     0.0431084  
C        C      0.409870000000     0.490800000000     0.812800000000     0.0431084  
C        C      0.293270000000     0.498400000000     0.741800000000     0.0431084  
N        N      0.670400000000     0.618310000000     0.523410000000    -0.159384   
N        N      0.003730000000     0.905100000000     0.381690000000    -0.159384   
N        N      0.337070000000     0.476590000000     0.094900000000    -0.159384   
N        N      0.670400000000     0.381690000000     0.476590000000    -0.159384   
N        N      0.003730000000     0.094900000000     0.618310000000    -0.159384   
N        N      0.337070000000     0.523410000000     0.905100000000    -0.159384   
O        O      0.383400000000     0.914580000000     0.519390000000    -0.270749   
O        O      0.097100000000     0.858500000000     0.559600000000    -0.270749   
O        O      0.716730000000     0.604810000000     0.085420000000    -0.270749   
O        O      0.430430000000     0.701100000000     0.141500000000    -0.270749   
O        O      0.050070000000     0.480610000000     0.395190000000    -0.270749   
O        O      0.763770000000     0.440400000000     0.298900000000    -0.270749   
O        O      0.383400000000     0.085420000000     0.480610000000    -0.270749   
O        O      0.097100000000     0.141500000000     0.440400000000    -0.270749   
O        O      0.716730000000     0.395190000000     0.914580000000    -0.270749   
O        O      0.430430000000     0.298900000000     0.858500000000    -0.270749   
O        O      0.050070000000     0.519390000000     0.604810000000    -0.270749   
O        O      0.763770000000     0.559600000000     0.701100000000    -0.270749   


