data_VACFOV01_original

_audit_creation_method RASPA-1.0
_audit_creation_date 2022-1-30
_audit_author_name 'Felipe Lopes de Oliveira <felipe.lopes.oliveira@ibm.com>'

_cell_length_a    12.178
_cell_length_b    14.682
_cell_length_c    14.682
_cell_angle_alpha 120
_cell_angle_beta  90
_cell_angle_gamma 90
_cell_volume      2273.41

_symmetry_cell_setting          triclinic
_symmetry_space_group_name_Hall 'P 1'
_symmetry_space_group_name_H-M  'P 1'
_symmetry_Int_Tables_number     1

_symmetry_equiv_pos_as_xyz 'x,y,z'

loop_
_atom_site_label
_atom_site_type_symbol
_atom_site_fract_x
_atom_site_fract_y
_atom_site_fract_z
_atom_site_charge
In       In     0.166670000000     0.500000000000     0.000000000000     2.43336    
In       In     0.500000000000     0.500000000000     0.500000000000     2.43336    
In       In     0.833330000000     0.000000000000     0.500000000000     2.43336    
H        H      0.909400000000     0.655100000000     0.874500000000     0.0668064  
H        H      0.906400000000     0.338600000000     0.718700000000     0.0668064  
H        H      0.242730000000     0.219400000000     0.344900000000     0.0668064  
H        H      0.239730000000     0.380100000000     0.661400000000     0.0668064  
H        H      0.576070000000     0.125500000000     0.780600000000     0.0668064  
H        H      0.573070000000     0.281300000000     0.619900000000     0.0668064  
H        H      0.909400000000     0.344900000000     0.125500000000     0.0668064  
H        H      0.906400000000     0.661400000000     0.281300000000     0.0668064  
H        H      0.242730000000     0.780600000000     0.655100000000     0.0668064  
H        H      0.239730000000     0.619900000000     0.338600000000     0.0668064  
H        H      0.576070000000     0.874500000000     0.219400000000     0.0668064  
H        H      0.573070000000     0.718700000000     0.380100000000     0.0668064  
H        H      0.423930000000     0.780600000000     0.125500000000     0.0668064  
H        H      0.426930000000     0.619900000000     0.281300000000     0.0668064  
H        H      0.090600000000     0.874500000000     0.655100000000     0.0668064  
H        H      0.093600000000     0.718700000000     0.338600000000     0.0668064  
H        H      0.757270000000     0.344900000000     0.219400000000     0.0668064  
H        H      0.760270000000     0.661400000000     0.380100000000     0.0668064  
H        H      0.423930000000     0.219400000000     0.874500000000     0.0668064  
H        H      0.426930000000     0.380100000000     0.718700000000     0.0668064  
H        H      0.090600000000     0.125500000000     0.344900000000     0.0668064  
H        H      0.093600000000     0.281300000000     0.661400000000     0.0668064  
H        H      0.757270000000     0.655100000000     0.780600000000     0.0668064  
H        H      0.760270000000     0.338600000000     0.619900000000     0.0668064  
C        C      0.877900000000     0.592100000000     0.824100000000     0.0541196  
C        C      0.922100000000     0.494100000000     0.804300000000     0.0541196  
C        C      0.877300000000     0.402000000000     0.730100000000     0.0541196  
C        C      0.017100000000     0.493500000000     0.871100000000     0.0541196  
C        C      0.211230000000     0.232000000000     0.407900000000     0.0541196  
C        C      0.255430000000     0.310200000000     0.505900000000     0.0541196  
C        C      0.210630000000     0.328100000000     0.598000000000     0.0541196  
C        C      0.350430000000     0.377600000000     0.506500000000     0.0541196  
C        C      0.544570000000     0.175900000000     0.768000000000     0.0541196  
C        C      0.588770000000     0.195700000000     0.689800000000     0.0541196  
C        C      0.543970000000     0.269900000000     0.671900000000     0.0541196  
C        C      0.683770000000     0.128900000000     0.622400000000     0.0541196  
C        C      0.877900000000     0.407900000000     0.175900000000     0.0541196  
C        C      0.922100000000     0.505900000000     0.195700000000     0.0541196  
C        C      0.877300000000     0.598000000000     0.269900000000     0.0541196  
C        C      0.017100000000     0.506500000000     0.128900000000     0.0541196  
C        C      0.211230000000     0.768000000000     0.592100000000     0.0541196  
C        C      0.255430000000     0.689800000000     0.494100000000     0.0541196  
C        C      0.210630000000     0.671900000000     0.402000000000     0.0541196  
C        C      0.350430000000     0.622400000000     0.493500000000     0.0541196  
C        C      0.544570000000     0.824100000000     0.232000000000     0.0541196  
C        C      0.588770000000     0.804300000000     0.310200000000     0.0541196  
C        C      0.543970000000     0.730100000000     0.328100000000     0.0541196  
C        C      0.683770000000     0.871100000000     0.377600000000     0.0541196  
C        C      0.455430000000     0.768000000000     0.175900000000     0.0541196  
C        C      0.411230000000     0.689800000000     0.195700000000     0.0541196  
C        C      0.456030000000     0.671900000000     0.269900000000     0.0541196  
C        C      0.316230000000     0.622400000000     0.128900000000     0.0541196  
C        C      0.122100000000     0.824100000000     0.592100000000     0.0541196  
C        C      0.077900000000     0.804300000000     0.494100000000     0.0541196  
C        C      0.122700000000     0.730100000000     0.402000000000     0.0541196  
C        C      0.982900000000     0.871100000000     0.493500000000     0.0541196  
C        C      0.788770000000     0.407900000000     0.232000000000     0.0541196  
C        C      0.744570000000     0.505900000000     0.310200000000     0.0541196  
C        C      0.789370000000     0.598000000000     0.328100000000     0.0541196  
C        C      0.649570000000     0.506500000000     0.377600000000     0.0541196  
C        C      0.455430000000     0.232000000000     0.824100000000     0.0541196  
C        C      0.411230000000     0.310200000000     0.804300000000     0.0541196  
C        C      0.456030000000     0.328100000000     0.730100000000     0.0541196  
C        C      0.316230000000     0.377600000000     0.871100000000     0.0541196  
C        C      0.122100000000     0.175900000000     0.407900000000     0.0541196  
C        C      0.077900000000     0.195700000000     0.505900000000     0.0541196  
C        C      0.122700000000     0.269900000000     0.598000000000     0.0541196  
C        C      0.982900000000     0.128900000000     0.506500000000     0.0541196  
C        C      0.788770000000     0.592100000000     0.768000000000     0.0541196  
C        C      0.744570000000     0.494100000000     0.689800000000     0.0541196  
C        C      0.789370000000     0.402000000000     0.671900000000     0.0541196  
C        C      0.649570000000     0.493500000000     0.622400000000     0.0541196  
O        O      0.067200000000     0.580600000000     0.929600000000    -0.479216   
O        O      0.041600000000     0.412800000000     0.871200000000    -0.479216   
O        O      0.400530000000     0.349000000000     0.419400000000    -0.479216   
O        O      0.374930000000     0.458400000000     0.587200000000    -0.479216   
O        O      0.733870000000     0.070400000000     0.651000000000    -0.479216   
O        O      0.708270000000     0.128800000000     0.541600000000    -0.479216   
O        O      0.067200000000     0.419400000000     0.070400000000    -0.479216   
O        O      0.041600000000     0.587200000000     0.128800000000    -0.479216   
O        O      0.400530000000     0.651000000000     0.580600000000    -0.479216   
O        O      0.374930000000     0.541600000000     0.412800000000    -0.479216   
O        O      0.733870000000     0.929600000000     0.349000000000    -0.479216   
O        O      0.708270000000     0.871200000000     0.458400000000    -0.479216   
O        O      0.266130000000     0.651000000000     0.070400000000    -0.479216   
O        O      0.291730000000     0.541600000000     0.128800000000    -0.479216   
O        O      0.932800000000     0.929600000000     0.580600000000    -0.479216   
O        O      0.958400000000     0.871200000000     0.412800000000    -0.479216   
O        O      0.599470000000     0.419400000000     0.349000000000    -0.479216   
O        O      0.625070000000     0.587200000000     0.458400000000    -0.479216   
O        O      0.266130000000     0.349000000000     0.929600000000    -0.479216   
O        O      0.291730000000     0.458400000000     0.871200000000    -0.479216   
O        O      0.932800000000     0.070400000000     0.419400000000    -0.479216   
O        O      0.958400000000     0.128800000000     0.587200000000    -0.479216   
O        O      0.599470000000     0.580600000000     0.651000000000    -0.479216   
O        O      0.625070000000     0.412800000000     0.541600000000    -0.479216   


