data_VACFUB_original

_audit_creation_method RASPA-1.0
_audit_creation_date 2022-1-30
_audit_author_name 'Felipe Lopes de Oliveira <felipe.lopes.oliveira@ibm.com>'

_cell_length_a    6.258
_cell_length_b    15.526
_cell_length_c    15.526
_cell_angle_alpha 120
_cell_angle_beta  90
_cell_angle_gamma 90
_cell_volume      1306.43

_symmetry_cell_setting          triclinic
_symmetry_space_group_name_Hall 'P 1'
_symmetry_space_group_name_H-M  'P 1'
_symmetry_Int_Tables_number     1

_symmetry_equiv_pos_as_xyz 'x,y,z'

loop_
_atom_site_label
_atom_site_type_symbol
_atom_site_fract_x
_atom_site_fract_y
_atom_site_fract_z
_atom_site_charge
Zn       Zn     0.951550000000     0.166730000000     0.333340000000     0.419137   
Zn       Zn     0.618220000000     0.166610000000     0.833270000000     0.419137   
Zn       Zn     0.284880000000     0.666660000000     0.833390000000     0.419137   
H        H      0.223500000000     0.869180000000     0.993520000000     0.0490594  
H        H      0.952680000000     0.549100000000     0.604960000000     0.0490594  
H        H      0.434500000000     0.004810000000     0.139160000000     0.0490594  
H        H      0.442780000000     0.328210000000     0.526920000000     0.0490594  
H        H      0.952580000000     0.785040000000     0.061530000000     0.0490594  
H        H      0.221090000000     0.463380000000     0.669580000000     0.0490594  
H        H      0.720650000000     0.657960000000     0.917750000000     0.0490594  
H        H      0.721290000000     0.673110000000     0.749140000000     0.0490594  
H        H      0.890170000000     0.124330000000     0.130820000000     0.0490594  
H        H      0.619350000000     0.055860000000     0.450900000000     0.0490594  
H        H      0.110420000000     0.135720000000     0.993790000000     0.0490594  
H        H      0.109450000000     0.198700000000     0.671790000000     0.0490594  
H        H      0.619250000000     0.276490000000     0.214960000000     0.0490594  
H        H      0.887760000000     0.206200000000     0.536620000000     0.0490594  
H        H      0.387320000000     0.259790000000     0.342040000000     0.0490594  
H        H      0.387960000000     0.076030000000     0.326890000000     0.0490594  
H        H      0.556830000000     0.006480000000     0.875670000000     0.0490594  
H        H      0.286010000000     0.395040000000     0.944140000000     0.0490594  
H        H      0.767830000000     0.860840000000     0.865650000000     0.0490594  
H        H      0.776110000000     0.473080000000     0.801300000000     0.0490594  
H        H      0.285910000000     0.938470000000     0.723510000000     0.0490594  
H        H      0.554420000000     0.330420000000     0.793800000000     0.0490594  
H        H      0.053980000000     0.082250000000     0.740210000000     0.0490594  
H        H      0.054620000000     0.250860000000     0.923970000000     0.0490594  
C        C      0.850100000000     0.981200000000     0.188900000000     0.0499513  
C        C      0.848700000000     0.351700000000     0.477700000000     0.0499513  
C        C      0.707900000000     0.902500000000     0.107200000000     0.0499513  
C        C      0.390500000000     0.852700000000     0.010900000000     0.0499513  
C        C      0.709300000000     0.430900000000     0.558400000000     0.0499513  
C        C      0.788000000000     0.527800000000     0.619700000000     0.0499513  
C        C      0.507600000000     0.927900000000     0.091400000000     0.0499513  
C        C      0.507800000000     0.406600000000     0.575900000000     0.0499513  
C        C      0.787400000000     0.805700000000     0.046600000000     0.0499513  
C        C      0.389600000000     0.480200000000     0.654200000000     0.0499513  
C        C      0.659500000000     0.736700000000     0.968700000000     0.0499513  
C        C      0.660800000000     0.594600000000     0.696700000000     0.0499513  
C        C      0.516770000000     0.207700000000     0.018800000000     0.0499513  
C        C      0.515370000000     0.126000000000     0.648300000000     0.0499513  
C        C      0.374570000000     0.204700000000     0.097500000000     0.0499513  
C        C      0.057170000000     0.158200000000     0.147300000000     0.0499513  
C        C      0.375970000000     0.127500000000     0.569100000000     0.0499513  
C        C      0.454670000000     0.091900000000     0.472200000000     0.0499513  
C        C      0.174270000000     0.163500000000     0.072100000000     0.0499513  
C        C      0.174470000000     0.169300000000     0.593400000000     0.0499513  
C        C      0.454070000000     0.240900000000     0.194300000000     0.0499513  
C        C      0.056270000000     0.174000000000     0.519800000000     0.0499513  
C        C      0.326170000000     0.232000000000     0.263300000000     0.0499513  
C        C      0.327470000000     0.102100000000     0.405400000000     0.0499513  
C        C      0.183430000000     0.811100000000     0.792300000000     0.0499513  
C        C      0.182030000000     0.522300000000     0.874000000000     0.0499513  
C        C      0.041230000000     0.892800000000     0.795300000000     0.0499513  
C        C      0.723830000000     0.989100000000     0.841800000000     0.0499513  
C        C      0.042630000000     0.441600000000     0.872500000000     0.0499513  
C        C      0.121330000000     0.380300000000     0.908100000000     0.0499513  
C        C      0.840930000000     0.908600000000     0.836500000000     0.0499513  
C        C      0.841130000000     0.424100000000     0.830700000000     0.0499513  
C        C      0.120730000000     0.953400000000     0.759100000000     0.0499513  
C        C      0.722930000000     0.345800000000     0.826000000000     0.0499513  
C        C      0.992830000000     0.031300000000     0.768000000000     0.0499513  
C        C      0.994130000000     0.303300000000     0.897900000000     0.0499513  
N        N      0.464600000000     0.761800000000     0.952800000000    -0.150464   
N        N      0.465000000000     0.572200000000     0.714100000000    -0.150464   
N        N      0.131270000000     0.191000000000     0.238200000000    -0.150464   
N        N      0.131670000000     0.141900000000     0.427800000000    -0.150464   
N        N      0.797930000000     0.047200000000     0.809000000000    -0.150464   
N        N      0.798330000000     0.285900000000     0.858100000000    -0.150464   
O        O      0.751900000000     0.271200000000     0.419200000000    -0.277525   
O        O      0.751500000000     0.061500000000     0.247800000000    -0.277525   
O        O      0.040000000000     0.368100000000     0.475900000000    -0.277525   
O        O      0.040200000000     0.965600000000     0.190600000000    -0.277525   
O        O      0.418570000000     0.148000000000     0.728800000000    -0.277525   
O        O      0.418170000000     0.186300000000     0.938500000000    -0.277525   
O        O      0.706670000000     0.107800000000     0.631900000000    -0.277525   
O        O      0.706870000000     0.225000000000     0.034400000000    -0.277525   
O        O      0.085230000000     0.580800000000     0.852000000000    -0.277525   
O        O      0.084830000000     0.752200000000     0.813700000000    -0.277525   
O        O      0.373330000000     0.524100000000     0.892200000000    -0.277525   
O        O      0.373530000000     0.809400000000     0.775000000000    -0.277525   


