data_VAGTUU_original

_audit_creation_method RASPA-1.0
_audit_creation_date 2022-1-29
_audit_author_name 'Felipe Lopes de Oliveira <felipe.lopes.oliveira@ibm.com>'

_cell_length_a    17.2237
_cell_length_b    17.2344
_cell_length_c    17.2923
_cell_angle_alpha 90.548
_cell_angle_beta  90
_cell_angle_gamma 90
_cell_volume      5132.81

_symmetry_cell_setting          triclinic
_symmetry_space_group_name_Hall 'P 1'
_symmetry_space_group_name_H-M  'P 1'
_symmetry_Int_Tables_number     1

_symmetry_equiv_pos_as_xyz 'x,y,z'

loop_
_atom_site_label
_atom_site_type_symbol
_atom_site_fract_x
_atom_site_fract_y
_atom_site_fract_z
_atom_site_charge
Zn       Zn     0.431910000000     0.110100000000     0.075500000000     0.450612   
Zn       Zn     0.585550000000     0.172950000000     0.983800000000     0.450612   
Zn       Zn     0.424210000000     0.262460000000     0.978980000000     0.450612   
Zn       Zn     0.517990000000     0.260470000000     0.134030000000     0.450612   
Zn       Zn     0.436600000000     0.601130000000     0.413200000000     0.450612   
Zn       Zn     0.348170000000     0.757070000000     0.344340000000     0.450612   
Zn       Zn     0.789130000000     0.328450000000     0.506580000000     0.450612   
Zn       Zn     0.444600000000     0.766990000000     0.498060000000     0.450612   
Zn       Zn     0.931910000000     0.889900000000     0.924500000000     0.450612   
Zn       Zn     0.085550000000     0.827050000000     0.016200000000     0.450612   
Zn       Zn     0.924210000000     0.737540000000     0.021020000000     0.450612   
Zn       Zn     0.017990000000     0.739530000000     0.865970000000     0.450612   
Zn       Zn     0.936600000000     0.398870000000     0.586800000000     0.450612   
Zn       Zn     0.848170000000     0.242930000000     0.655660000000     0.450612   
Zn       Zn     0.289130000000     0.671550000000     0.493420000000     0.450612   
Zn       Zn     0.944600000000     0.233010000000     0.501940000000     0.450612   
H        H      0.693400000000     0.972900000000     0.976700000000     0.063055   
H        H      0.743400000000     0.750600000000     0.126600000000     0.063055   
H        H      0.679300000000     0.689400000000     0.220700000000     0.063055   
H        H      0.559100000000     0.714800000000     0.263700000000     0.063055   
H        H      0.482900000000     0.807700000000     0.234600000000     0.063055   
H        H      0.497200000000     0.902800000000     0.153600000000     0.063055   
H        H      0.631900000000     0.207400000000     0.763200000000     0.063055   
H        H      0.561800000000     0.328300000000     0.528500000000     0.063055   
H        H      0.454100000000     0.381400000000     0.486800000000     0.063055   
H        H      0.344700000000     0.397900000000     0.546100000000     0.063055   
H        H      0.306500000000     0.355900000000     0.656000000000     0.063055   
H        H      0.373600000000     0.296600000000     0.744900000000     0.063055   
H        H      0.712000000000     0.266600000000     0.278100000000     0.063055   
H        H      0.935800000000     0.114100000000     0.313500000000     0.063055   
H        H      0.993400000000     0.024400000000     0.243600000000     0.063055   
H        H      0.966100000000     0.982400000000     0.128600000000     0.063055   
H        H      0.876600000000     0.017900000000     0.051000000000     0.063055   
H        H      0.778000000000     0.099100000000     0.073400000000     0.063055   
H        H      0.399300000000     0.998300000000     0.270600000000     0.063055   
H        H      0.554600000000     0.950500000000     0.487000000000     0.063055   
H        H      0.649500000000     0.010400000000     0.545900000000     0.063055   
H        H      0.695100000000     0.129200000000     0.522400000000     0.063055   
H        H      0.660400000000     0.208200000000     0.428800000000     0.063055   
H        H      0.569400000000     0.196300000000     0.344800000000     0.063055   
H        H      0.453500000000     0.491200000000     0.215100000000     0.063055   
H        H      0.375900000000     0.477400000000     0.954600000000     0.063055   
H        H      0.332300000000     0.562000000000     0.869800000000     0.063055   
H        H      0.287000000000     0.681900000000     0.892600000000     0.063055   
H        H      0.302800000000     0.750300000000     0.995500000000     0.063055   
H        H      0.341100000000     0.719500000000     0.110100000000     0.063055   
H        H      0.658700000000     0.545600000000     0.475200000000     0.063055   
H        H      0.838800000000     0.572800000000     0.678100000000     0.063055   
H        H      0.862400000000     0.663900000000     0.764800000000     0.063055   
H        H      0.805400000000     0.777500000000     0.779900000000     0.063055   
H        H      0.708300000000     0.827100000000     0.714700000000     0.063055   
H        H      0.644500000000     0.776600000000     0.619000000000     0.063055   
H        H      0.193400000000     0.027100000000     0.023300000000     0.063055   
H        H      0.243400000000     0.249400000000     0.873400000000     0.063055   
H        H      0.179300000000     0.310600000000     0.779300000000     0.063055   
H        H      0.059100000000     0.285200000000     0.736300000000     0.063055   
H        H      0.982900000000     0.192300000000     0.765400000000     0.063055   
H        H      0.997200000000     0.097200000000     0.846400000000     0.063055   
H        H      0.131900000000     0.792600000000     0.236800000000     0.063055   
H        H      0.061800000000     0.671700000000     0.471500000000     0.063055   
H        H      0.954100000000     0.618600000000     0.513200000000     0.063055   
H        H      0.844700000000     0.602100000000     0.453900000000     0.063055   
H        H      0.806500000000     0.644100000000     0.344000000000     0.063055   
H        H      0.873600000000     0.703400000000     0.255100000000     0.063055   
H        H      0.212000000000     0.733400000000     0.721900000000     0.063055   
H        H      0.435800000000     0.885900000000     0.686500000000     0.063055   
H        H      0.493400000000     0.975600000000     0.756400000000     0.063055   
H        H      0.466100000000     0.017600000000     0.871400000000     0.063055   
H        H      0.376600000000     0.982100000000     0.949000000000     0.063055   
H        H      0.278000000000     0.900900000000     0.926600000000     0.063055   
H        H      0.899300000000     0.001700000000     0.729400000000     0.063055   
H        H      0.054600000000     0.049500000000     0.513000000000     0.063055   
H        H      0.149500000000     0.989600000000     0.454100000000     0.063055   
H        H      0.195100000000     0.870800000000     0.477600000000     0.063055   
H        H      0.160400000000     0.791800000000     0.571200000000     0.063055   
H        H      0.069400000000     0.803700000000     0.655200000000     0.063055   
H        H      0.953500000000     0.508800000000     0.784900000000     0.063055   
H        H      0.875900000000     0.522600000000     0.045400000000     0.063055   
H        H      0.832300000000     0.438000000000     0.130200000000     0.063055   
H        H      0.787000000000     0.318100000000     0.107400000000     0.063055   
H        H      0.802800000000     0.249700000000     0.004500000000     0.063055   
H        H      0.841100000000     0.280500000000     0.889900000000     0.063055   
H        H      0.158700000000     0.454400000000     0.524800000000     0.063055   
H        H      0.338800000000     0.427200000000     0.321900000000     0.063055   
H        H      0.362400000000     0.336100000000     0.235200000000     0.063055   
H        H      0.305400000000     0.222500000000     0.220100000000     0.063055   
H        H      0.208300000000     0.172900000000     0.285300000000     0.063055   
H        H      0.144500000000     0.223400000000     0.381000000000     0.063055   
C        C      0.549500000000     0.005600000000     0.037200000000     0.0294085  
C        C      0.604400000000     0.943500000000     0.051400000000     0.0294085  
C        C      0.675400000000     0.938100000000     0.013400000000     0.0294085  
C        C      0.716100000000     0.871600000000     0.038700000000     0.0294085  
C        C      0.670500000000     0.835400000000     0.095600000000     0.0294085  
C        C      0.598200000000     0.880600000000     0.104300000000     0.0294085  
C        C      0.694500000000     0.770300000000     0.138700000000     0.0294085  
C        C      0.653900000000     0.731000000000     0.198000000000     0.0294085  
C        C      0.578000000000     0.748700000000     0.226600000000     0.0294085  
C        C      0.529700000000     0.807300000000     0.207700000000     0.0294085  
C        C      0.537800000000     0.867200000000     0.154900000000     0.0294085  
C        C      0.793300000000     0.848600000000     0.008400000000     0.0294085  
C        C      0.493900000000     0.230000000000     0.838900000000     0.0294085  
C        C      0.518800000000     0.246800000000     0.758400000000     0.0294085  
C        C      0.594300000000     0.232300000000     0.734000000000     0.0294085  
C        C      0.606100000000     0.260500000000     0.659200000000     0.0294085  
C        C      0.535400000000     0.295500000000     0.633900000000     0.0294085  
C        C      0.480000000000     0.285000000000     0.699800000000     0.0294085  
C        C      0.520500000000     0.328500000000     0.563200000000     0.0294085  
C        C      0.452100000000     0.362000000000     0.536700000000     0.0294085  
C        C      0.381900000000     0.370700000000     0.573800000000     0.0294085  
C        C      0.358200000000     0.346200000000     0.643900000000     0.0294085  
C        C      0.400900000000     0.308400000000     0.700200000000     0.0294085  
C        C      0.681200000000     0.259100000000     0.620700000000     0.0294085  
C        C      0.670400000000     0.207900000000     0.134800000000     0.0294085  
C        C      0.738500000000     0.192900000000     0.185800000000     0.0294085  
C        C      0.746100000000     0.229600000000     0.258100000000     0.0294085  
C        C      0.812100000000     0.202800000000     0.295600000000     0.0294085  
C        C      0.847900000000     0.147300000000     0.247100000000     0.0294085  
C        C      0.800400000000     0.141300000000     0.176600000000     0.0294085  
C        C      0.913700000000     0.104000000000     0.265300000000     0.0294085  
C        C      0.950500000000     0.047500000000     0.220600000000     0.0294085  
C        C      0.933100000000     0.020800000000     0.147600000000     0.0294085  
C        C      0.875900000000     0.041500000000     0.099500000000     0.0294085  
C        C      0.814100000000     0.095000000000     0.113200000000     0.0294085  
C        C      0.832400000000     0.230100000000     0.373700000000     0.0294085  
C        C      0.456900000000     0.142100000000     0.235500000000     0.0294085  
C        C      0.472000000000     0.087200000000     0.300100000000     0.0294085  
C        C      0.437500000000     0.015800000000     0.304600000000     0.0294085  
C        C      0.465800000000     0.973000000000     0.364900000000     0.0294085  
C        C      0.521000000000     0.018200000000     0.403900000000     0.0294085  
C        C      0.527700000000     0.091600000000     0.359700000000     0.0294085  
C        C      0.566400000000     0.998800000000     0.466500000000     0.0294085  
C        C      0.626400000000     0.037000000000     0.505400000000     0.0294085  
C        C      0.655900000000     0.111400000000     0.489900000000     0.0294085  
C        C      0.632900000000     0.161900000000     0.430900000000     0.0294085  
C        C      0.576400000000     0.153300000000     0.376300000000     0.0294085  
C        C      0.439100000000     0.895300000000     0.384400000000     0.0294085  
C        C      0.436000000000     0.399000000000     0.083900000000     0.0294085  
C        C      0.417700000000     0.481300000000     0.101100000000     0.0294085  
C        C      0.430700000000     0.516100000000     0.173400000000     0.0294085  
C        C      0.405400000000     0.592300000000     0.174500000000     0.0294085  
C        C      0.405900000000     0.642000000000     0.243500000000     0.0294085  
C        C      0.386100000000     0.537200000000     0.051400000000     0.0294085  
C        C      0.367100000000     0.527000000000     0.974200000000     0.0294085  
C        C      0.336500000000     0.580100000000     0.920500000000     0.0294085  
C        C      0.311200000000     0.657300000000     0.933700000000     0.0294085  
C        C      0.318600000000     0.698900000000     0.999900000000     0.0294085  
C        C      0.344700000000     0.680500000000     0.072700000000     0.0294085  
C        C      0.376300000000     0.609400000000     0.097000000000     0.0294085  
C        C      0.577400000000     0.682400000000     0.500100000000     0.0294085  
C        C      0.649500000000     0.645700000000     0.536400000000     0.0294085  
C        C      0.677800000000     0.575800000000     0.515800000000     0.0294085  
C        C      0.740000000000     0.554200000000     0.563400000000     0.0294085  
C        C      0.750300000000     0.612400000000     0.618000000000     0.0294085  
C        C      0.692200000000     0.673600000000     0.600600000000     0.0294085  
C        C      0.806600000000     0.615900000000     0.675500000000     0.0294085  
C        C      0.822300000000     0.674400000000     0.730400000000     0.0294085  
C        C      0.785700000000     0.746400000000     0.740200000000     0.0294085  
C        C      0.724200000000     0.777900000000     0.699100000000     0.0294085  
C        C      0.684000000000     0.745500000000     0.638400000000     0.0294085  
C        C      0.781900000000     0.481000000000     0.556600000000     0.0294085  
C        C      0.049500000000     0.994400000000     0.962800000000     0.0294085  
C        C      0.104400000000     0.056500000000     0.948600000000     0.0294085  
C        C      0.175400000000     0.061900000000     0.986600000000     0.0294085  
C        C      0.216100000000     0.128400000000     0.961300000000     0.0294085  
C        C      0.170500000000     0.164600000000     0.904400000000     0.0294085  
C        C      0.098200000000     0.119400000000     0.895700000000     0.0294085  
C        C      0.194500000000     0.229700000000     0.861300000000     0.0294085  
C        C      0.153900000000     0.269000000000     0.802000000000     0.0294085  
C        C      0.078000000000     0.251300000000     0.773400000000     0.0294085  
C        C      0.029700000000     0.192700000000     0.792300000000     0.0294085  
C        C      0.037800000000     0.132800000000     0.845100000000     0.0294085  
C        C      0.293300000000     0.151400000000     0.991600000000     0.0294085  
C        C      0.993900000000     0.770000000000     0.161100000000     0.0294085  
C        C      0.018800000000     0.753200000000     0.241600000000     0.0294085  
C        C      0.094300000000     0.767700000000     0.266000000000     0.0294085  
C        C      0.106100000000     0.739500000000     0.340800000000     0.0294085  
C        C      0.035400000000     0.704500000000     0.366100000000     0.0294085  
C        C      0.980000000000     0.715000000000     0.300200000000     0.0294085  
C        C      0.020500000000     0.671500000000     0.436800000000     0.0294085  
C        C      0.952100000000     0.638000000000     0.463300000000     0.0294085  
C        C      0.881900000000     0.629300000000     0.426200000000     0.0294085  
C        C      0.858200000000     0.653800000000     0.356100000000     0.0294085  
C        C      0.900900000000     0.691600000000     0.299800000000     0.0294085  
C        C      0.181200000000     0.740900000000     0.379300000000     0.0294085  
C        C      0.170400000000     0.792100000000     0.865200000000     0.0294085  
C        C      0.238500000000     0.807100000000     0.814200000000     0.0294085  
C        C      0.246100000000     0.770400000000     0.741900000000     0.0294085  
C        C      0.312100000000     0.797200000000     0.704400000000     0.0294085  
C        C      0.347900000000     0.852700000000     0.752900000000     0.0294085  
C        C      0.300400000000     0.858700000000     0.823400000000     0.0294085  
C        C      0.413700000000     0.896000000000     0.734700000000     0.0294085  
C        C      0.450500000000     0.952500000000     0.779400000000     0.0294085  
C        C      0.433100000000     0.979200000000     0.852400000000     0.0294085  
C        C      0.375900000000     0.958500000000     0.900500000000     0.0294085  
C        C      0.314100000000     0.905000000000     0.886800000000     0.0294085  
C        C      0.332400000000     0.769900000000     0.626300000000     0.0294085  
C        C      0.956900000000     0.857900000000     0.764500000000     0.0294085  
C        C      0.972000000000     0.912800000000     0.699900000000     0.0294085  
C        C      0.937500000000     0.984200000000     0.695400000000     0.0294085  
C        C      0.965800000000     0.027000000000     0.635100000000     0.0294085  
C        C      0.021000000000     0.981800000000     0.596100000000     0.0294085  
C        C      0.027700000000     0.908400000000     0.640300000000     0.0294085  
C        C      0.066400000000     0.001200000000     0.533500000000     0.0294085  
C        C      0.126400000000     0.963000000000     0.494600000000     0.0294085  
C        C      0.155900000000     0.888600000000     0.510100000000     0.0294085  
C        C      0.132900000000     0.838100000000     0.569100000000     0.0294085  
C        C      0.076400000000     0.846700000000     0.623700000000     0.0294085  
C        C      0.939100000000     0.104700000000     0.615600000000     0.0294085  
C        C      0.936000000000     0.601000000000     0.916100000000     0.0294085  
C        C      0.917700000000     0.518700000000     0.898900000000     0.0294085  
C        C      0.930700000000     0.483900000000     0.826600000000     0.0294085  
C        C      0.905400000000     0.407700000000     0.825500000000     0.0294085  
C        C      0.905900000000     0.358000000000     0.756500000000     0.0294085  
C        C      0.886100000000     0.462800000000     0.948600000000     0.0294085  
C        C      0.867100000000     0.473000000000     0.025800000000     0.0294085  
C        C      0.836500000000     0.419900000000     0.079500000000     0.0294085  
C        C      0.811200000000     0.342700000000     0.066300000000     0.0294085  
C        C      0.818600000000     0.301100000000     0.000100000000     0.0294085  
C        C      0.844700000000     0.319500000000     0.927300000000     0.0294085  
C        C      0.876300000000     0.390600000000     0.903000000000     0.0294085  
C        C      0.077400000000     0.317600000000     0.499900000000     0.0294085  
C        C      0.149500000000     0.354300000000     0.463600000000     0.0294085  
C        C      0.177800000000     0.424200000000     0.484200000000     0.0294085  
C        C      0.240000000000     0.445800000000     0.436600000000     0.0294085  
C        C      0.250300000000     0.387600000000     0.382000000000     0.0294085  
C        C      0.192200000000     0.326400000000     0.399400000000     0.0294085  
C        C      0.306600000000     0.384100000000     0.324500000000     0.0294085  
C        C      0.322300000000     0.325600000000     0.269600000000     0.0294085  
C        C      0.285700000000     0.253600000000     0.259800000000     0.0294085  
C        C      0.224200000000     0.222100000000     0.300900000000     0.0294085  
C        C      0.184000000000     0.254500000000     0.361600000000     0.0294085  
C        C      0.281900000000     0.519000000000     0.443400000000     0.0294085  
O        O      0.488600000000     0.199800000000     0.045000000000    -0.307395   
O        O      0.489200000000     0.012600000000     0.080800000000    -0.307395   
O        O      0.565300000000     0.053100000000     0.984300000000    -0.307395   
O        O      0.829600000000     0.901200000000     0.972300000000    -0.307395   
O        O      0.818200000000     0.781400000000     0.019300000000    -0.307395   
O        O      0.524600000000     0.176500000000     0.874500000000    -0.307395   
O        O      0.441400000000     0.276600000000     0.868300000000    -0.307395   
O        O      0.736400000000     0.224600000000     0.658700000000    -0.307395   
O        O      0.691200000000     0.292800000000     0.558200000000    -0.307395   
O        O      0.657400000000     0.163000000000     0.079300000000    -0.307395   
O        O      0.629300000000     0.267400000000     0.154000000000    -0.307395   
O        O      0.891100000000     0.200800000000     0.406400000000    -0.307395   
O        O      0.789300000000     0.282300000000     0.403200000000    -0.307395   
O        O      0.495400000000     0.204500000000     0.230700000000    -0.307395   
O        O      0.407200000000     0.120900000000     0.186900000000    -0.307395   
O        O      0.464100000000     0.865300000000     0.446800000000    -0.307395   
O        O      0.391800000000     0.862200000000     0.338300000000    -0.307395   
O        O      0.473100000000     0.364000000000     0.136300000000    -0.307395   
O        O      0.413900000000     0.369200000000     0.020800000000    -0.307395   
O        O      0.450200000000     0.622800000000     0.296300000000    -0.307395   
O        O      0.362000000000     0.702400000000     0.244200000000    -0.307395   
O        O      0.379700000000     0.701600000000     0.435000000000    -0.307395   
O        O      0.544000000000     0.737100000000     0.538400000000    -0.307395   
O        O      0.552200000000     0.652000000000     0.438500000000    -0.307395   
O        O      0.834500000000     0.463200000000     0.604100000000    -0.307395   
O        O      0.759000000000     0.437000000000     0.501700000000    -0.307395   
O        O      0.988600000000     0.800200000000     0.955000000000    -0.307395   
O        O      0.989200000000     0.987400000000     0.919200000000    -0.307395   
O        O      0.065300000000     0.946900000000     0.015700000000    -0.307395   
O        O      0.329600000000     0.098800000000     0.027700000000    -0.307395   
O        O      0.318200000000     0.218600000000     0.980700000000    -0.307395   
O        O      0.024600000000     0.823500000000     0.125500000000    -0.307395   
O        O      0.941400000000     0.723400000000     0.131700000000    -0.307395   
O        O      0.236400000000     0.775400000000     0.341300000000    -0.307395   
O        O      0.191200000000     0.707200000000     0.441800000000    -0.307395   
O        O      0.157400000000     0.837000000000     0.920700000000    -0.307395   
O        O      0.129300000000     0.732600000000     0.846000000000    -0.307395   
O        O      0.391100000000     0.799200000000     0.593600000000    -0.307395   
O        O      0.289300000000     0.717700000000     0.596800000000    -0.307395   
O        O      0.995400000000     0.795500000000     0.769300000000    -0.307395   
O        O      0.907200000000     0.879100000000     0.813100000000    -0.307395   
O        O      0.964100000000     0.134700000000     0.553200000000    -0.307395   
O        O      0.891800000000     0.137800000000     0.661700000000    -0.307395   
O        O      0.973100000000     0.636000000000     0.863700000000    -0.307395   
O        O      0.913900000000     0.630800000000     0.979200000000    -0.307395   
O        O      0.950200000000     0.377200000000     0.703700000000    -0.307395   
O        O      0.862000000000     0.297600000000     0.755800000000    -0.307395   
O        O      0.879700000000     0.298400000000     0.565000000000    -0.307395   
O        O      0.044000000000     0.262900000000     0.461600000000    -0.307395   
O        O      0.052200000000     0.348000000000     0.561500000000    -0.307395   
O        O      0.334500000000     0.536800000000     0.395900000000    -0.307395   
O        O      0.259000000000     0.563000000000     0.498300000000    -0.307395   


