data_VAHSIH_original

_audit_creation_method RASPA-1.0
_audit_creation_date 2022-1-29
_audit_author_name 'Felipe Lopes de Oliveira <felipe.lopes.oliveira@ibm.com>'

_cell_length_a    10.3738
_cell_length_b    13.4494
_cell_length_c    14.806
_cell_angle_alpha 90
_cell_angle_beta  90
_cell_angle_gamma 90.275
_cell_volume      2065.73

_symmetry_cell_setting          triclinic
_symmetry_space_group_name_Hall 'P 1'
_symmetry_space_group_name_H-M  'P 1'
_symmetry_Int_Tables_number     1

_symmetry_equiv_pos_as_xyz 'x,y,z'

loop_
_atom_site_label
_atom_site_type_symbol
_atom_site_fract_x
_atom_site_fract_y
_atom_site_fract_z
_atom_site_charge
Al       Al     0.234500000000     0.650800000000     0.894700000000     7.88127    
Al       Al     0.229600000000     0.387000000000     0.100600000000     7.88127    
Al       Al     0.507500000000     0.727800000000     0.104100000000     7.88127    
Al       Al     0.002200000000     0.384200000000     0.768000000000     7.88127    
Al       Al     0.265500000000     0.849200000000     0.394700000000     7.88127    
Al       Al     0.270400000000     0.113000000000     0.600600000000     7.88127    
Al       Al     0.992500000000     0.772200000000     0.604100000000     7.88127    
Al       Al     0.497800000000     0.115800000000     0.268000000000     7.88127    
Al       Al     0.765500000000     0.349200000000     0.105300000000     7.88127    
Al       Al     0.770400000000     0.613000000000     0.899400000000     7.88127    
Al       Al     0.492500000000     0.272200000000     0.895900000000     7.88127    
Al       Al     0.997800000000     0.615800000000     0.232000000000     7.88127    
Al       Al     0.734500000000     0.150800000000     0.605300000000     7.88127    
Al       Al     0.729600000000     0.887000000000     0.399400000000     7.88127    
Al       Al     0.007500000000     0.227800000000     0.395900000000     7.88127    
Al       Al     0.502200000000     0.884200000000     0.732000000000     7.88127    
P        P      0.232700000000     0.619800000000     0.104500000000     2.05508    
P        P      0.240800000000     0.402700000000     0.892100000000     2.05508    
P        P      0.514200000000     0.735300000000     0.894200000000     2.05508    
P        P      0.000500000000     0.621600000000     0.765000000000     2.05508    
P        P      0.267300000000     0.880200000000     0.604500000000     2.05508    
P        P      0.259200000000     0.097300000000     0.392100000000     2.05508    
P        P      0.985800000000     0.764700000000     0.394200000000     2.05508    
P        P      0.499500000000     0.878400000000     0.265000000000     2.05508    
P        P      0.767300000000     0.380200000000     0.895500000000     2.05508    
P        P      0.759200000000     0.597300000000     0.107900000000     2.05508    
P        P      0.485800000000     0.264700000000     0.105800000000     2.05508    
P        P      0.999500000000     0.378400000000     0.235000000000     2.05508    
P        P      0.732700000000     0.119800000000     0.395500000000     2.05508    
P        P      0.740800000000     0.902700000000     0.607900000000     2.05508    
P        P      0.014200000000     0.235300000000     0.605800000000     2.05508    
P        P      0.500500000000     0.121600000000     0.735000000000     2.05508    
O        O      0.143800000000     0.356900000000     0.825200000000    -2.37039    
O        O      0.196300000000     0.368900000000     0.986900000000    -2.37039    
O        O      0.247500000000     0.513100000000     0.883200000000    -2.37039    
O        O      0.404600000000     0.663500000000     0.878300000000    -2.37039    
O        O      0.502200000000     0.828700000000     0.837000000000    -2.37039    
O        O      0.521300000000     0.768700000000     0.993100000000    -2.37039    
O        O      0.639800000000     0.683700000000     0.868000000000    -2.37039    
O        O      0.901500000000     0.652500000000     0.836200000000    -2.37039    
O        O      0.989200000000     0.509900000000     0.748400000000    -2.37039    
O        O      0.969900000000     0.672500000000     0.675500000000    -2.37039    
O        O      0.134100000000     0.651400000000     0.796200000000    -2.37039    
O        O      0.262500000000     0.510300000000     0.123300000000    -2.37039    
O        O      0.182300000000     0.634000000000     0.009800000000    -2.37039    
O        O      0.131000000000     0.656300000000     0.171400000000    -2.37039    
O        O      0.355700000000     0.679400000000     0.121300000000    -2.37039    
O        O      0.373600000000     0.358300000000     0.873300000000    -2.37039    
O        O      0.356200000000     0.143100000000     0.325200000000    -2.37039    
O        O      0.303700000000     0.131100000000     0.486900000000    -2.37039    
O        O      0.252500000000     0.986900000000     0.383200000000    -2.37039    
O        O      0.095400000000     0.836500000000     0.378300000000    -2.37039    
O        O      0.997800000000     0.671300000000     0.337000000000    -2.37039    
O        O      0.978700000000     0.731300000000     0.493100000000    -2.37039    
O        O      0.860200000000     0.816300000000     0.368000000000    -2.37039    
O        O      0.598500000000     0.847500000000     0.336200000000    -2.37039    
O        O      0.510800000000     0.990100000000     0.248400000000    -2.37039    
O        O      0.530100000000     0.827500000000     0.175500000000    -2.37039    
O        O      0.365900000000     0.848600000000     0.296200000000    -2.37039    
O        O      0.237500000000     0.989700000000     0.623300000000    -2.37039    
O        O      0.317700000000     0.866000000000     0.509800000000    -2.37039    
O        O      0.369000000000     0.843700000000     0.671400000000    -2.37039    
O        O      0.144300000000     0.820600000000     0.621300000000    -2.37039    
O        O      0.126400000000     0.141700000000     0.373300000000    -2.37039    
O        O      0.856200000000     0.643100000000     0.174800000000    -2.37039    
O        O      0.803700000000     0.631100000000     0.013100000000    -2.37039    
O        O      0.752500000000     0.486900000000     0.116800000000    -2.37039    
O        O      0.595400000000     0.336500000000     0.121700000000    -2.37039    
O        O      0.497800000000     0.171300000000     0.163000000000    -2.37039    
O        O      0.478700000000     0.231300000000     0.006900000000    -2.37039    
O        O      0.360200000000     0.316300000000     0.132000000000    -2.37039    
O        O      0.098500000000     0.347500000000     0.163800000000    -2.37039    
O        O      0.010800000000     0.490100000000     0.251600000000    -2.37039    
O        O      0.030100000000     0.327500000000     0.324500000000    -2.37039    
O        O      0.865900000000     0.348600000000     0.203800000000    -2.37039    
O        O      0.737500000000     0.489700000000     0.876700000000    -2.37039    
O        O      0.817700000000     0.366000000000     0.990200000000    -2.37039    
O        O      0.869000000000     0.343700000000     0.828600000000    -2.37039    
O        O      0.644300000000     0.320600000000     0.878700000000    -2.37039    
O        O      0.626400000000     0.641700000000     0.126700000000    -2.37039    
O        O      0.643800000000     0.856900000000     0.674800000000    -2.37039    
O        O      0.696300000000     0.868900000000     0.513100000000    -2.37039    
O        O      0.747500000000     0.013100000000     0.616800000000    -2.37039    
O        O      0.904600000000     0.163500000000     0.621700000000    -2.37039    
O        O      0.002200000000     0.328700000000     0.663000000000    -2.37039    
O        O      0.021300000000     0.268700000000     0.506900000000    -2.37039    
O        O      0.139800000000     0.183700000000     0.632000000000    -2.37039    
O        O      0.401500000000     0.152500000000     0.663800000000    -2.37039    
O        O      0.489200000000     0.009900000000     0.751600000000    -2.37039    
O        O      0.469900000000     0.172500000000     0.824500000000    -2.37039    
O        O      0.634100000000     0.151400000000     0.703800000000    -2.37039    
O        O      0.762500000000     0.010300000000     0.376700000000    -2.37039    
O        O      0.682300000000     0.134000000000     0.490200000000    -2.37039    
O        O      0.631000000000     0.156300000000     0.328600000000    -2.37039    
O        O      0.855700000000     0.179400000000     0.378700000000    -2.37039    
O        O      0.873600000000     0.858300000000     0.626700000000    -2.37039    
F        F      0.209100000000     0.779600000000     0.908300000000    -1.8192     
F        F      0.290900000000     0.720400000000     0.408300000000    -1.8192     
F        F      0.790900000000     0.220400000000     0.091700000000    -1.8192     
F        F      0.709100000000     0.279600000000     0.591700000000    -1.8192     


