data_VAZTOG_original

_audit_creation_method RASPA-1.0
_audit_creation_date 2022-1-29
_audit_author_name 'Felipe Lopes de Oliveira <felipe.lopes.oliveira@ibm.com>'

_cell_length_a    18.3014
_cell_length_b    18.3014
_cell_length_c    18.3014
_cell_angle_alpha 60
_cell_angle_beta  60
_cell_angle_gamma 60
_cell_volume      4334.49

_symmetry_cell_setting          triclinic
_symmetry_space_group_name_Hall 'P 1'
_symmetry_space_group_name_H-M  'P 1'
_symmetry_Int_Tables_number     1

_symmetry_equiv_pos_as_xyz 'x,y,z'

loop_
_atom_site_label
_atom_site_type_symbol
_atom_site_fract_x
_atom_site_fract_y
_atom_site_fract_z
_atom_site_charge
Zn       Zn     0.206400000000     0.380800000000     0.206400000000     0.470104   
Zn       Zn     0.380800000000     0.206400000000     0.206400000000     0.470104   
Zn       Zn     0.206400000000     0.206400000000     0.206400000000     0.470104   
Zn       Zn     0.206400000000     0.206400000000     0.380800000000     0.470104   
Zn       Zn     0.619200000000     0.793600000000     0.793600000000     0.470104   
Zn       Zn     0.793600000000     0.619200000000     0.793600000000     0.470104   
Zn       Zn     0.793600000000     0.793600000000     0.793600000000     0.470104   
Zn       Zn     0.793600000000     0.793600000000     0.619200000000     0.470104   
H        H      0.048500000000     0.565700000000     0.048500000000     0.0547874  
H        H      0.565700000000     0.048500000000     0.337300000000     0.0547874  
H        H      0.048500000000     0.337300000000     0.048500000000     0.0547874  
H        H      0.337300000000     0.048500000000     0.565700000000     0.0547874  
H        H      0.048500000000     0.048500000000     0.337300000000     0.0547874  
H        H      0.565700000000     0.337300000000     0.048500000000     0.0547874  
H        H      0.048500000000     0.048500000000     0.565700000000     0.0547874  
H        H      0.337300000000     0.565700000000     0.048500000000     0.0547874  
H        H      0.048500000000     0.337300000000     0.565700000000     0.0547874  
H        H      0.565700000000     0.048500000000     0.048500000000     0.0547874  
H        H      0.048500000000     0.565700000000     0.337300000000     0.0547874  
H        H      0.337300000000     0.048500000000     0.048500000000     0.0547874  
H        H      0.434300000000     0.951500000000     0.951500000000     0.0547874  
H        H      0.951500000000     0.434300000000     0.662700000000     0.0547874  
H        H      0.662700000000     0.951500000000     0.951500000000     0.0547874  
H        H      0.951500000000     0.662700000000     0.434300000000     0.0547874  
H        H      0.951500000000     0.951500000000     0.662700000000     0.0547874  
H        H      0.662700000000     0.434300000000     0.951500000000     0.0547874  
H        H      0.951500000000     0.951500000000     0.434300000000     0.0547874  
H        H      0.434300000000     0.662700000000     0.951500000000     0.0547874  
H        H      0.662700000000     0.951500000000     0.434300000000     0.0547874  
H        H      0.951500000000     0.434300000000     0.951500000000     0.0547874  
H        H      0.434300000000     0.951500000000     0.662700000000     0.0547874  
H        H      0.951500000000     0.662700000000     0.951500000000     0.0547874  
C        C      0.026400000000     0.539200000000     0.026400000000     0.0596188  
C        C      0.539200000000     0.026400000000     0.408000000000     0.0596188  
C        C      0.026400000000     0.408000000000     0.026400000000     0.0596188  
C        C      0.408000000000     0.026400000000     0.539200000000     0.0596188  
C        C      0.026400000000     0.026400000000     0.408000000000     0.0596188  
C        C      0.539200000000     0.408000000000     0.026400000000     0.0596188  
C        C      0.026400000000     0.026400000000     0.539200000000     0.0596188  
C        C      0.408000000000     0.539200000000     0.026400000000     0.0596188  
C        C      0.026400000000     0.408000000000     0.539200000000     0.0596188  
C        C      0.539200000000     0.026400000000     0.026400000000     0.0596188  
C        C      0.026400000000     0.539200000000     0.408000000000     0.0596188  
C        C      0.408000000000     0.026400000000     0.026400000000     0.0596188  
C        C      0.460800000000     0.973600000000     0.973600000000     0.0596188  
C        C      0.973600000000     0.460800000000     0.592000000000     0.0596188  
C        C      0.592000000000     0.973600000000     0.973600000000     0.0596188  
C        C      0.973600000000     0.592000000000     0.460800000000     0.0596188  
C        C      0.973600000000     0.973600000000     0.592000000000     0.0596188  
C        C      0.592000000000     0.460800000000     0.973600000000     0.0596188  
C        C      0.973600000000     0.973600000000     0.460800000000     0.0596188  
C        C      0.460800000000     0.592000000000     0.973600000000     0.0596188  
C        C      0.592000000000     0.973600000000     0.460800000000     0.0596188  
C        C      0.973600000000     0.460800000000     0.973600000000     0.0596188  
C        C      0.460800000000     0.973600000000     0.592000000000     0.0596188  
C        C      0.973600000000     0.592000000000     0.973600000000     0.0596188  
C        C      0.110500000000     0.389500000000     0.110500000000     0.0596188  
C        C      0.054300000000     0.445700000000     0.054300000000     0.0596188  
C        C      0.389500000000     0.110500000000     0.389500000000     0.0596188  
C        C      0.445700000000     0.054300000000     0.445700000000     0.0596188  
C        C      0.110500000000     0.110500000000     0.389500000000     0.0596188  
C        C      0.054300000000     0.054300000000     0.445700000000     0.0596188  
C        C      0.389500000000     0.389500000000     0.110500000000     0.0596188  
C        C      0.445700000000     0.445700000000     0.054300000000     0.0596188  
C        C      0.110500000000     0.389500000000     0.389500000000     0.0596188  
C        C      0.054300000000     0.445700000000     0.445700000000     0.0596188  
C        C      0.389500000000     0.110500000000     0.110500000000     0.0596188  
C        C      0.445700000000     0.054300000000     0.054300000000     0.0596188  
C        C      0.610500000000     0.889500000000     0.889500000000     0.0596188  
C        C      0.554300000000     0.945700000000     0.945700000000     0.0596188  
C        C      0.889500000000     0.610500000000     0.610500000000     0.0596188  
C        C      0.945700000000     0.554300000000     0.554300000000     0.0596188  
C        C      0.889500000000     0.889500000000     0.610500000000     0.0596188  
C        C      0.945700000000     0.945700000000     0.554300000000     0.0596188  
C        C      0.610500000000     0.610500000000     0.889500000000     0.0596188  
C        C      0.554300000000     0.554300000000     0.945700000000     0.0596188  
C        C      0.610500000000     0.889500000000     0.610500000000     0.0596188  
C        C      0.554300000000     0.945700000000     0.554300000000     0.0596188  
C        C      0.889500000000     0.610500000000     0.889500000000     0.0596188  
C        C      0.945700000000     0.554300000000     0.945700000000     0.0596188  
O        O      0.250000000000     0.250000000000     0.250000000000    -0.305286   
O        O      0.750000000000     0.750000000000     0.750000000000    -0.305286   
O        O      0.133300000000     0.428300000000     0.133300000000    -0.305286   
O        O      0.428300000000     0.133300000000     0.305100000000    -0.305286   
O        O      0.133300000000     0.305100000000     0.133300000000    -0.305286   
O        O      0.305100000000     0.133300000000     0.428300000000    -0.305286   
O        O      0.133300000000     0.133300000000     0.305100000000    -0.305286   
O        O      0.428300000000     0.305100000000     0.133300000000    -0.305286   
O        O      0.133300000000     0.133300000000     0.428300000000    -0.305286   
O        O      0.305100000000     0.428300000000     0.133300000000    -0.305286   
O        O      0.133300000000     0.305100000000     0.428300000000    -0.305286   
O        O      0.428300000000     0.133300000000     0.133300000000    -0.305286   
O        O      0.133300000000     0.428300000000     0.305100000000    -0.305286   
O        O      0.305100000000     0.133300000000     0.133300000000    -0.305286   
O        O      0.571700000000     0.866700000000     0.866700000000    -0.305286   
O        O      0.866700000000     0.571700000000     0.694900000000    -0.305286   
O        O      0.694900000000     0.866700000000     0.866700000000    -0.305286   
O        O      0.866700000000     0.694900000000     0.571700000000    -0.305286   
O        O      0.866700000000     0.866700000000     0.694900000000    -0.305286   
O        O      0.694900000000     0.571700000000     0.866700000000    -0.305286   
O        O      0.866700000000     0.866700000000     0.571700000000    -0.305286   
O        O      0.571700000000     0.694900000000     0.866700000000    -0.305286   
O        O      0.694900000000     0.866700000000     0.571700000000    -0.305286   
O        O      0.866700000000     0.571700000000     0.866700000000    -0.305286   
O        O      0.571700000000     0.866700000000     0.694900000000    -0.305286   
O        O      0.866700000000     0.694900000000     0.866700000000    -0.305286   


