data_VEHKAW_original

_audit_creation_method RASPA-1.0
_audit_creation_date 2022-1-28
_audit_author_name 'Felipe Lopes de Oliveira <felipe.lopes.oliveira@ibm.com>'

_cell_length_a    9.32
_cell_length_b    12.608
_cell_length_c    16.107
_cell_angle_alpha 90
_cell_angle_beta  90
_cell_angle_gamma 100.942
_cell_volume      1858.27

_symmetry_cell_setting          triclinic
_symmetry_space_group_name_Hall 'P 1'
_symmetry_space_group_name_H-M  'P 1'
_symmetry_Int_Tables_number     1

_symmetry_equiv_pos_as_xyz 'x,y,z'

loop_
_atom_site_label
_atom_site_type_symbol
_atom_site_fract_x
_atom_site_fract_y
_atom_site_fract_z
_atom_site_charge
Zn       Zn     0.367290000000     0.023260000000     0.912580000000     0.504194   
Zn       Zn     0.132710000000     0.476740000000     0.412580000000     0.504194   
Zn       Zn     0.632710000000     0.976740000000     0.087420000000     0.504194   
Zn       Zn     0.867290000000     0.523260000000     0.587420000000     0.504194   
H        H      0.958000000000     0.090600000000     0.917900000000     0.121441   
H        H      0.084500000000     0.295800000000     0.730900000000     0.121441   
H        H      0.667600000000     0.240300000000     0.806800000000     0.121441   
H        H      0.542000000000     0.409400000000     0.417900000000     0.121441   
H        H      0.415500000000     0.204200000000     0.230900000000     0.121441   
H        H      0.832400000000     0.259700000000     0.306800000000     0.121441   
H        H      0.042000000000     0.909400000000     0.082100000000     0.121441   
H        H      0.915500000000     0.704200000000     0.269100000000     0.121441   
H        H      0.332400000000     0.759700000000     0.193200000000     0.121441   
H        H      0.458000000000     0.590600000000     0.582100000000     0.121441   
H        H      0.584500000000     0.795800000000     0.769100000000     0.121441   
H        H      0.167600000000     0.740300000000     0.693200000000     0.121441   
H        H      0.060000000000     0.714900000000     0.953000000000     0.121441   
H        H      0.990800000000     0.614100000000     0.899700000000     0.121441   
H        H      0.901500000000     0.652500000000     0.972600000000     0.121441   
H        H      0.806500000000     0.824300000000     0.952800000000     0.121441   
H        H      0.823800000000     0.874800000000     0.863500000000     0.121441   
H        H      0.957500000000     0.891600000000     0.924300000000     0.121441   
H        H      0.834600000000     0.703100000000     0.850400000000     0.121441   
H        H      0.980500000000     0.762600000000     0.834200000000     0.121441   
H        H      0.440000000000     0.785100000000     0.453000000000     0.121441   
H        H      0.509200000000     0.885900000000     0.399700000000     0.121441   
H        H      0.598500000000     0.847500000000     0.472600000000     0.121441   
H        H      0.693500000000     0.675700000000     0.452800000000     0.121441   
H        H      0.676200000000     0.625200000000     0.363500000000     0.121441   
H        H      0.542500000000     0.608400000000     0.424300000000     0.121441   
H        H      0.665400000000     0.796900000000     0.350400000000     0.121441   
H        H      0.519500000000     0.737400000000     0.334200000000     0.121441   
H        H      0.940000000000     0.285100000000     0.047000000000     0.121441   
H        H      0.009200000000     0.385900000000     0.100300000000     0.121441   
H        H      0.098500000000     0.347500000000     0.027400000000     0.121441   
H        H      0.193500000000     0.175700000000     0.047200000000     0.121441   
H        H      0.176200000000     0.125200000000     0.136500000000     0.121441   
H        H      0.042500000000     0.108400000000     0.075700000000     0.121441   
H        H      0.165400000000     0.296900000000     0.149600000000     0.121441   
H        H      0.019500000000     0.237400000000     0.165800000000     0.121441   
H        H      0.560000000000     0.214900000000     0.547000000000     0.121441   
H        H      0.490800000000     0.114100000000     0.600300000000     0.121441   
H        H      0.401500000000     0.152500000000     0.527400000000     0.121441   
H        H      0.306500000000     0.324300000000     0.547200000000     0.121441   
H        H      0.323800000000     0.374800000000     0.636500000000     0.121441   
H        H      0.457500000000     0.391600000000     0.575700000000     0.121441   
H        H      0.334600000000     0.203100000000     0.649600000000     0.121441   
H        H      0.480500000000     0.262600000000     0.665800000000     0.121441   
C        C      0.793900000000     0.158000000000     0.872400000000     0.0069356  
C        C      0.935700000000     0.138100000000     0.877800000000     0.0069356  
C        C      0.044000000000     0.188200000000     0.824000000000     0.0069356  
C        C      0.011300000000     0.260200000000     0.765700000000     0.0069356  
C        C      0.869800000000     0.280100000000     0.758500000000     0.0069356  
C        C      0.762500000000     0.228000000000     0.811800000000     0.0069356  
C        C      0.679100000000     0.103000000000     0.932000000000     0.0069356  
C        C      0.196600000000     0.162300000000     0.830500000000     0.0069356  
C        C      0.832700000000     0.356900000000     0.693800000000     0.0069356  
C        C      0.706100000000     0.342000000000     0.372400000000     0.0069356  
C        C      0.564300000000     0.361900000000     0.377800000000     0.0069356  
C        C      0.456000000000     0.311800000000     0.324000000000     0.0069356  
C        C      0.488700000000     0.239800000000     0.265700000000     0.0069356  
C        C      0.630200000000     0.219900000000     0.258500000000     0.0069356  
C        C      0.737500000000     0.272000000000     0.311800000000     0.0069356  
C        C      0.820900000000     0.397000000000     0.432000000000     0.0069356  
C        C      0.303400000000     0.337700000000     0.330500000000     0.0069356  
C        C      0.667300000000     0.143100000000     0.193800000000     0.0069356  
C        C      0.206100000000     0.842000000000     0.127600000000     0.0069356  
C        C      0.064300000000     0.861900000000     0.122200000000     0.0069356  
C        C      0.956000000000     0.811800000000     0.176000000000     0.0069356  
C        C      0.988700000000     0.739800000000     0.234300000000     0.0069356  
C        C      0.130200000000     0.719900000000     0.241500000000     0.0069356  
C        C      0.237500000000     0.772000000000     0.188200000000     0.0069356  
C        C      0.320900000000     0.897000000000     0.068000000000     0.0069356  
C        C      0.803400000000     0.837700000000     0.169500000000     0.0069356  
C        C      0.167300000000     0.643100000000     0.306200000000     0.0069356  
C        C      0.293900000000     0.658000000000     0.627600000000     0.0069356  
C        C      0.435700000000     0.638100000000     0.622200000000     0.0069356  
C        C      0.544000000000     0.688200000000     0.676000000000     0.0069356  
C        C      0.511300000000     0.760200000000     0.734300000000     0.0069356  
C        C      0.369800000000     0.780100000000     0.741500000000     0.0069356  
C        C      0.262500000000     0.728000000000     0.688200000000     0.0069356  
C        C      0.179100000000     0.603000000000     0.568000000000     0.0069356  
C        C      0.696600000000     0.662300000000     0.669500000000     0.0069356  
C        C      0.332700000000     0.856900000000     0.806200000000     0.0069356  
C        C      0.971000000000     0.675900000000     0.929200000000     0.0069356  
C        C      0.871800000000     0.842000000000     0.906600000000     0.0069356  
C        C      0.529000000000     0.824100000000     0.429200000000     0.0069356  
C        C      0.628200000000     0.658000000000     0.406600000000     0.0069356  
C        C      0.029000000000     0.324100000000     0.070800000000     0.0069356  
C        C      0.128200000000     0.158000000000     0.093400000000     0.0069356  
C        C      0.471000000000     0.175900000000     0.570800000000     0.0069356  
C        C      0.371800000000     0.342000000000     0.593400000000     0.0069356  
N        N      0.914000000000     0.743000000000     0.874500000000    -0.14245    
N        N      0.586000000000     0.757000000000     0.374500000000    -0.14245    
N        N      0.086000000000     0.257000000000     0.125500000000    -0.14245    
N        N      0.414000000000     0.243000000000     0.625500000000    -0.14245    
O        O      0.553700000000     0.125000000000     0.925700000000    -0.295647   
O        O      0.716500000000     0.039100000000     0.982900000000    -0.295647   
O        O      0.214100000000     0.102000000000     0.891200000000    -0.295647   
O        O      0.290200000000     0.198400000000     0.780000000000    -0.295647   
O        O      0.936700000000     0.424500000000     0.664000000000    -0.295647   
O        O      0.703000000000     0.351600000000     0.673300000000    -0.295647   
O        O      0.946300000000     0.375000000000     0.425700000000    -0.295647   
O        O      0.783500000000     0.460900000000     0.482900000000    -0.295647   
O        O      0.285900000000     0.398000000000     0.391200000000    -0.295647   
O        O      0.209800000000     0.301600000000     0.280000000000    -0.295647   
O        O      0.563300000000     0.075500000000     0.164000000000    -0.295647   
O        O      0.797000000000     0.148400000000     0.173300000000    -0.295647   
O        O      0.446300000000     0.875000000000     0.074300000000    -0.295647   
O        O      0.283500000000     0.960900000000     0.017100000000    -0.295647   
O        O      0.785900000000     0.898000000000     0.108800000000    -0.295647   
O        O      0.709800000000     0.801600000000     0.220000000000    -0.295647   
O        O      0.063300000000     0.575500000000     0.336000000000    -0.295647   
O        O      0.297000000000     0.648400000000     0.326700000000    -0.295647   
O        O      0.053700000000     0.625000000000     0.574300000000    -0.295647   
O        O      0.216500000000     0.539100000000     0.517100000000    -0.295647   
O        O      0.714100000000     0.602000000000     0.608800000000    -0.295647   
O        O      0.790200000000     0.698400000000     0.720000000000    -0.295647   
O        O      0.436700000000     0.924500000000     0.836000000000    -0.295647   
O        O      0.203000000000     0.851600000000     0.826700000000    -0.295647   


