data_VEJYIT01_original

_audit_creation_method RASPA-1.0
_audit_creation_date 2022-1-29
_audit_author_name 'Felipe Lopes de Oliveira <felipe.lopes.oliveira@ibm.com>'

_cell_length_a    9.801
_cell_length_b    24.104
_cell_length_c    24.356
_cell_angle_alpha 90
_cell_angle_beta  90
_cell_angle_gamma 90
_cell_volume      5753.94

_symmetry_cell_setting          triclinic
_symmetry_space_group_name_Hall 'P 1'
_symmetry_space_group_name_H-M  'P 1'
_symmetry_Int_Tables_number     1

_symmetry_equiv_pos_as_xyz 'x,y,z'

loop_
_atom_site_label
_atom_site_type_symbol
_atom_site_fract_x
_atom_site_fract_y
_atom_site_fract_z
_atom_site_charge
Zn       Zn     0.024660000000     0.824220000000     0.499440000000     0.337453   
Zn       Zn     0.000400000000     0.000590000000     0.323370000000     0.337453   
Zn       Zn     0.475340000000     0.175780000000     0.999440000000     0.337453   
Zn       Zn     0.499600000000     0.999410000000     0.823370000000     0.337453   
Zn       Zn     0.975340000000     0.324220000000     0.000560000000     0.337453   
Zn       Zn     0.999600000000     0.500590000000     0.176630000000     0.337453   
Zn       Zn     0.524660000000     0.675780000000     0.500560000000     0.337453   
Zn       Zn     0.500400000000     0.499410000000     0.676630000000     0.337453   
Zn       Zn     0.975340000000     0.175780000000     0.500560000000     0.337453   
Zn       Zn     0.999600000000     0.999410000000     0.676630000000     0.337453   
Zn       Zn     0.524660000000     0.824220000000     0.000560000000     0.337453   
Zn       Zn     0.500400000000     0.000590000000     0.176630000000     0.337453   
Zn       Zn     0.024660000000     0.675780000000     0.999440000000     0.337453   
Zn       Zn     0.000400000000     0.499410000000     0.823370000000     0.337453   
Zn       Zn     0.475340000000     0.324220000000     0.499440000000     0.337453   
Zn       Zn     0.499600000000     0.500590000000     0.323370000000     0.337453   
H        H      0.731500000000     0.776300000000     0.530900000000     0.0139778  
H        H      0.787000000000     0.656700000000     0.426200000000     0.0139778  
H        H      0.988200000000     0.715600000000     0.425500000000     0.0139778  
H        H      0.978800000000     0.945600000000     0.442500000000     0.0139778  
H        H      0.067100000000     0.939600000000     0.559700000000     0.0139778  
H        H      0.848400000000     0.814400000000     0.609300000000     0.0139778  
H        H      0.842400000000     0.885000000000     0.679900000000     0.0139778  
H        H      0.301000000000     0.969000000000     0.276900000000     0.0139778  
H        H      0.014800000000     0.055500000000     0.205000000000     0.0139778  
H        H      0.213300000000     0.052800000000     0.144800000000     0.0139778  
H        H      0.112700000000     0.878200000000     0.307100000000     0.0139778  
H        H      0.124000000000     0.809800000000     0.380000000000     0.0139778  
H        H      0.768500000000     0.223700000000     0.030900000000     0.0139778  
H        H      0.713000000000     0.343300000000     0.926200000000     0.0139778  
H        H      0.511800000000     0.284400000000     0.925500000000     0.0139778  
H        H      0.521200000000     0.054400000000     0.942500000000     0.0139778  
H        H      0.432900000000     0.060400000000     0.059700000000     0.0139778  
H        H      0.651600000000     0.185600000000     0.109300000000     0.0139778  
H        H      0.657600000000     0.115000000000     0.179900000000     0.0139778  
H        H      0.199000000000     0.031000000000     0.776900000000     0.0139778  
H        H      0.485200000000     0.944500000000     0.705000000000     0.0139778  
H        H      0.286700000000     0.947200000000     0.644800000000     0.0139778  
H        H      0.387300000000     0.121800000000     0.807100000000     0.0139778  
H        H      0.376000000000     0.190200000000     0.880000000000     0.0139778  
H        H      0.268500000000     0.276300000000     0.969100000000     0.0139778  
H        H      0.213000000000     0.156700000000     0.073800000000     0.0139778  
H        H      0.011800000000     0.215600000000     0.074500000000     0.0139778  
H        H      0.021200000000     0.445600000000     0.057500000000     0.0139778  
H        H      0.932900000000     0.439600000000     0.940300000000     0.0139778  
H        H      0.151600000000     0.314400000000     0.890700000000     0.0139778  
H        H      0.157600000000     0.385000000000     0.820100000000     0.0139778  
H        H      0.699000000000     0.469000000000     0.223100000000     0.0139778  
H        H      0.985200000000     0.555500000000     0.295000000000     0.0139778  
H        H      0.786700000000     0.552800000000     0.355200000000     0.0139778  
H        H      0.887300000000     0.378200000000     0.192900000000     0.0139778  
H        H      0.876000000000     0.309800000000     0.120000000000     0.0139778  
H        H      0.231500000000     0.723700000000     0.469100000000     0.0139778  
H        H      0.287000000000     0.843300000000     0.573800000000     0.0139778  
H        H      0.488200000000     0.784400000000     0.574500000000     0.0139778  
H        H      0.478800000000     0.554400000000     0.557500000000     0.0139778  
H        H      0.567100000000     0.560400000000     0.440300000000     0.0139778  
H        H      0.348400000000     0.685600000000     0.390700000000     0.0139778  
H        H      0.342400000000     0.615000000000     0.320100000000     0.0139778  
H        H      0.801000000000     0.531000000000     0.723100000000     0.0139778  
H        H      0.514800000000     0.444500000000     0.795000000000     0.0139778  
H        H      0.713300000000     0.447200000000     0.855200000000     0.0139778  
H        H      0.612700000000     0.621800000000     0.692900000000     0.0139778  
H        H      0.624000000000     0.690200000000     0.620000000000     0.0139778  
H        H      0.268500000000     0.223700000000     0.469100000000     0.0139778  
H        H      0.213000000000     0.343300000000     0.573800000000     0.0139778  
H        H      0.011800000000     0.284400000000     0.574500000000     0.0139778  
H        H      0.021200000000     0.054400000000     0.557500000000     0.0139778  
H        H      0.932900000000     0.060400000000     0.440300000000     0.0139778  
H        H      0.151600000000     0.185600000000     0.390700000000     0.0139778  
H        H      0.157600000000     0.115000000000     0.320100000000     0.0139778  
H        H      0.699000000000     0.031000000000     0.723100000000     0.0139778  
H        H      0.985200000000     0.944500000000     0.795000000000     0.0139778  
H        H      0.786700000000     0.947200000000     0.855200000000     0.0139778  
H        H      0.887300000000     0.121800000000     0.692900000000     0.0139778  
H        H      0.876000000000     0.190200000000     0.620000000000     0.0139778  
H        H      0.231500000000     0.776300000000     0.969100000000     0.0139778  
H        H      0.287000000000     0.656700000000     0.073800000000     0.0139778  
H        H      0.488200000000     0.715600000000     0.074500000000     0.0139778  
H        H      0.478800000000     0.945600000000     0.057500000000     0.0139778  
H        H      0.567100000000     0.939600000000     0.940300000000     0.0139778  
H        H      0.348400000000     0.814400000000     0.890700000000     0.0139778  
H        H      0.342400000000     0.885000000000     0.820100000000     0.0139778  
H        H      0.801000000000     0.969000000000     0.223100000000     0.0139778  
H        H      0.514800000000     0.055500000000     0.295000000000     0.0139778  
H        H      0.713300000000     0.052800000000     0.355200000000     0.0139778  
H        H      0.612700000000     0.878200000000     0.192900000000     0.0139778  
H        H      0.624000000000     0.809800000000     0.120000000000     0.0139778  
H        H      0.731500000000     0.723700000000     0.030900000000     0.0139778  
H        H      0.787000000000     0.843300000000     0.926200000000     0.0139778  
H        H      0.988200000000     0.784400000000     0.925500000000     0.0139778  
H        H      0.978800000000     0.554400000000     0.942500000000     0.0139778  
H        H      0.067100000000     0.560400000000     0.059700000000     0.0139778  
H        H      0.848400000000     0.685600000000     0.109300000000     0.0139778  
H        H      0.842400000000     0.615000000000     0.179900000000     0.0139778  
H        H      0.301000000000     0.531000000000     0.776900000000     0.0139778  
H        H      0.014800000000     0.444500000000     0.705000000000     0.0139778  
H        H      0.213300000000     0.447200000000     0.644800000000     0.0139778  
H        H      0.112700000000     0.621800000000     0.807100000000     0.0139778  
H        H      0.124000000000     0.690200000000     0.880000000000     0.0139778  
H        H      0.768500000000     0.276300000000     0.530900000000     0.0139778  
H        H      0.713000000000     0.156700000000     0.426200000000     0.0139778  
H        H      0.511800000000     0.215600000000     0.425500000000     0.0139778  
H        H      0.521200000000     0.445600000000     0.442500000000     0.0139778  
H        H      0.432900000000     0.439600000000     0.559700000000     0.0139778  
H        H      0.651600000000     0.314400000000     0.609300000000     0.0139778  
H        H      0.657600000000     0.385000000000     0.679900000000     0.0139778  
H        H      0.199000000000     0.469000000000     0.276900000000     0.0139778  
H        H      0.485200000000     0.555500000000     0.205000000000     0.0139778  
H        H      0.286700000000     0.552800000000     0.144800000000     0.0139778  
H        H      0.387300000000     0.378200000000     0.307100000000     0.0139778  
H        H      0.376000000000     0.309800000000     0.380000000000     0.0139778  
C        C      0.771200000000     0.753300000000     0.504800000000     0.0393745  
C        C      0.799600000000     0.688100000000     0.447800000000     0.0393745  
C        C      0.911500000000     0.720700000000     0.447400000000     0.0393745  
C        C      0.012700000000     0.919900000000     0.417500000000     0.0393745  
C        C      0.010600000000     0.917300000000     0.581000000000     0.0393745  
C        C      0.891900000000     0.848700000000     0.607600000000     0.0393745  
C        C      0.888600000000     0.887800000000     0.646700000000     0.0393745  
C        C      0.254100000000     0.990700000000     0.251600000000     0.0393745  
C        C      0.096600000000     0.037500000000     0.212400000000     0.0393745  
C        C      0.207600000000     0.036500000000     0.179400000000     0.0393745  
C        C      0.086100000000     0.883800000000     0.343300000000     0.0393745  
C        C      0.091700000000     0.845900000000     0.383800000000     0.0393745  
C        C      0.728800000000     0.246700000000     0.004800000000     0.0393745  
C        C      0.700400000000     0.311900000000     0.947800000000     0.0393745  
C        C      0.588500000000     0.279300000000     0.947400000000     0.0393745  
C        C      0.487300000000     0.080100000000     0.917500000000     0.0393745  
C        C      0.489400000000     0.082700000000     0.081000000000     0.0393745  
C        C      0.608100000000     0.151300000000     0.107600000000     0.0393745  
C        C      0.611400000000     0.112200000000     0.146700000000     0.0393745  
C        C      0.245900000000     0.009300000000     0.751600000000     0.0393745  
C        C      0.403400000000     0.962500000000     0.712400000000     0.0393745  
C        C      0.292400000000     0.963500000000     0.679400000000     0.0393745  
C        C      0.413900000000     0.116200000000     0.843300000000     0.0393745  
C        C      0.408300000000     0.154100000000     0.883800000000     0.0393745  
C        C      0.228800000000     0.253300000000     0.995200000000     0.0393745  
C        C      0.200400000000     0.188100000000     0.052200000000     0.0393745  
C        C      0.088500000000     0.220700000000     0.052600000000     0.0393745  
C        C      0.987300000000     0.419900000000     0.082500000000     0.0393745  
C        C      0.989400000000     0.417300000000     0.919000000000     0.0393745  
C        C      0.108100000000     0.348700000000     0.892400000000     0.0393745  
C        C      0.111400000000     0.387800000000     0.853300000000     0.0393745  
C        C      0.745900000000     0.490700000000     0.248400000000     0.0393745  
C        C      0.903400000000     0.537500000000     0.287600000000     0.0393745  
C        C      0.792400000000     0.536500000000     0.320600000000     0.0393745  
C        C      0.913900000000     0.383800000000     0.156700000000     0.0393745  
C        C      0.908300000000     0.345900000000     0.116200000000     0.0393745  
C        C      0.271200000000     0.746700000000     0.495200000000     0.0393745  
C        C      0.299600000000     0.811900000000     0.552200000000     0.0393745  
C        C      0.411500000000     0.779300000000     0.552600000000     0.0393745  
C        C      0.512700000000     0.580100000000     0.582500000000     0.0393745  
C        C      0.510600000000     0.582700000000     0.419000000000     0.0393745  
C        C      0.391900000000     0.651300000000     0.392400000000     0.0393745  
C        C      0.388600000000     0.612200000000     0.353300000000     0.0393745  
C        C      0.754100000000     0.509300000000     0.748400000000     0.0393745  
C        C      0.596600000000     0.462500000000     0.787600000000     0.0393745  
C        C      0.707600000000     0.463500000000     0.820600000000     0.0393745  
C        C      0.586100000000     0.616200000000     0.656700000000     0.0393745  
C        C      0.591700000000     0.654100000000     0.616200000000     0.0393745  
C        C      0.228800000000     0.246700000000     0.495200000000     0.0393745  
C        C      0.200400000000     0.311900000000     0.552200000000     0.0393745  
C        C      0.088500000000     0.279300000000     0.552600000000     0.0393745  
C        C      0.987300000000     0.080100000000     0.582500000000     0.0393745  
C        C      0.989400000000     0.082700000000     0.419000000000     0.0393745  
C        C      0.108100000000     0.151300000000     0.392400000000     0.0393745  
C        C      0.111400000000     0.112200000000     0.353300000000     0.0393745  
C        C      0.745900000000     0.009300000000     0.748400000000     0.0393745  
C        C      0.903400000000     0.962500000000     0.787600000000     0.0393745  
C        C      0.792400000000     0.963500000000     0.820600000000     0.0393745  
C        C      0.913900000000     0.116200000000     0.656700000000     0.0393745  
C        C      0.908300000000     0.154100000000     0.616200000000     0.0393745  
C        C      0.271200000000     0.753300000000     0.995200000000     0.0393745  
C        C      0.299600000000     0.688100000000     0.052200000000     0.0393745  
C        C      0.411500000000     0.720700000000     0.052600000000     0.0393745  
C        C      0.512700000000     0.919900000000     0.082500000000     0.0393745  
C        C      0.510600000000     0.917300000000     0.919000000000     0.0393745  
C        C      0.391900000000     0.848700000000     0.892400000000     0.0393745  
C        C      0.388600000000     0.887800000000     0.853300000000     0.0393745  
C        C      0.754100000000     0.990700000000     0.248400000000     0.0393745  
C        C      0.596600000000     0.037500000000     0.287600000000     0.0393745  
C        C      0.707600000000     0.036500000000     0.320600000000     0.0393745  
C        C      0.586100000000     0.883800000000     0.156700000000     0.0393745  
C        C      0.591700000000     0.845900000000     0.116200000000     0.0393745  
C        C      0.771200000000     0.746700000000     0.004800000000     0.0393745  
C        C      0.799600000000     0.811900000000     0.947800000000     0.0393745  
C        C      0.911500000000     0.779300000000     0.947400000000     0.0393745  
C        C      0.012700000000     0.580100000000     0.917500000000     0.0393745  
C        C      0.010600000000     0.582700000000     0.081000000000     0.0393745  
C        C      0.891900000000     0.651300000000     0.107600000000     0.0393745  
C        C      0.888600000000     0.612200000000     0.146700000000     0.0393745  
C        C      0.254100000000     0.509300000000     0.751600000000     0.0393745  
C        C      0.096600000000     0.462500000000     0.712400000000     0.0393745  
C        C      0.207600000000     0.463500000000     0.679400000000     0.0393745  
C        C      0.086100000000     0.616200000000     0.843300000000     0.0393745  
C        C      0.091700000000     0.654100000000     0.883800000000     0.0393745  
C        C      0.728800000000     0.253300000000     0.504800000000     0.0393745  
C        C      0.700400000000     0.188100000000     0.447800000000     0.0393745  
C        C      0.588500000000     0.220700000000     0.447400000000     0.0393745  
C        C      0.487300000000     0.419900000000     0.417500000000     0.0393745  
C        C      0.489400000000     0.417300000000     0.581000000000     0.0393745  
C        C      0.608100000000     0.348700000000     0.607600000000     0.0393745  
C        C      0.611400000000     0.387800000000     0.646700000000     0.0393745  
C        C      0.245900000000     0.490700000000     0.251600000000     0.0393745  
C        C      0.403400000000     0.537500000000     0.212400000000     0.0393745  
C        C      0.292400000000     0.536500000000     0.179400000000     0.0393745  
C        C      0.413900000000     0.383800000000     0.343300000000     0.0393745  
C        C      0.408300000000     0.345900000000     0.383800000000     0.0393745  
N        N      0.893200000000     0.761900000000     0.484200000000    -0.164392   
N        N      0.709100000000     0.708100000000     0.484400000000    -0.164392   
N        N      0.043600000000     0.868200000000     0.430700000000    -0.164392   
N        N      0.035100000000     0.931600000000     0.364300000000    -0.164392   
N        N      0.963800000000     0.932500000000     0.630100000000    -0.164392   
N        N      0.969100000000     0.867300000000     0.565200000000    -0.164392   
N        N      0.125200000000     0.007200000000     0.258900000000    -0.164392   
N        N      0.309100000000     0.008200000000     0.204600000000    -0.164392   
N        N      0.606800000000     0.238100000000     0.984200000000    -0.164392   
N        N      0.790900000000     0.291900000000     0.984400000000    -0.164392   
N        N      0.456400000000     0.131800000000     0.930700000000    -0.164392   
N        N      0.464900000000     0.068400000000     0.864300000000    -0.164392   
N        N      0.536200000000     0.067500000000     0.130100000000    -0.164392   
N        N      0.530900000000     0.132700000000     0.065200000000    -0.164392   
N        N      0.374800000000     0.992800000000     0.758900000000    -0.164392   
N        N      0.190900000000     0.991800000000     0.704600000000    -0.164392   
N        N      0.106800000000     0.261900000000     0.015800000000    -0.164392   
N        N      0.290900000000     0.208100000000     0.015600000000    -0.164392   
N        N      0.956400000000     0.368200000000     0.069300000000    -0.164392   
N        N      0.964900000000     0.431600000000     0.135700000000    -0.164392   
N        N      0.036200000000     0.432500000000     0.869900000000    -0.164392   
N        N      0.030900000000     0.367300000000     0.934800000000    -0.164392   
N        N      0.874800000000     0.507200000000     0.241100000000    -0.164392   
N        N      0.690900000000     0.508200000000     0.295400000000    -0.164392   
N        N      0.393200000000     0.738100000000     0.515800000000    -0.164392   
N        N      0.209100000000     0.791900000000     0.515600000000    -0.164392   
N        N      0.543600000000     0.631800000000     0.569300000000    -0.164392   
N        N      0.535100000000     0.568400000000     0.635700000000    -0.164392   
N        N      0.463800000000     0.567500000000     0.369900000000    -0.164392   
N        N      0.469100000000     0.632700000000     0.434800000000    -0.164392   
N        N      0.625200000000     0.492800000000     0.741100000000    -0.164392   
N        N      0.809100000000     0.491800000000     0.795400000000    -0.164392   
N        N      0.106800000000     0.238100000000     0.515800000000    -0.164392   
N        N      0.290900000000     0.291900000000     0.515600000000    -0.164392   
N        N      0.956400000000     0.131800000000     0.569300000000    -0.164392   
N        N      0.964900000000     0.068400000000     0.635700000000    -0.164392   
N        N      0.036200000000     0.067500000000     0.369900000000    -0.164392   
N        N      0.030900000000     0.132700000000     0.434800000000    -0.164392   
N        N      0.874800000000     0.992800000000     0.741100000000    -0.164392   
N        N      0.690900000000     0.991800000000     0.795400000000    -0.164392   
N        N      0.393200000000     0.761900000000     0.015800000000    -0.164392   
N        N      0.209100000000     0.708100000000     0.015600000000    -0.164392   
N        N      0.543600000000     0.868200000000     0.069300000000    -0.164392   
N        N      0.535100000000     0.931600000000     0.135700000000    -0.164392   
N        N      0.463800000000     0.932500000000     0.869900000000    -0.164392   
N        N      0.469100000000     0.867300000000     0.934800000000    -0.164392   
N        N      0.625200000000     0.007200000000     0.241100000000    -0.164392   
N        N      0.809100000000     0.008200000000     0.295400000000    -0.164392   
N        N      0.893200000000     0.738100000000     0.984200000000    -0.164392   
N        N      0.709100000000     0.791900000000     0.984400000000    -0.164392   
N        N      0.043600000000     0.631800000000     0.930700000000    -0.164392   
N        N      0.035100000000     0.568400000000     0.864300000000    -0.164392   
N        N      0.963800000000     0.567500000000     0.130100000000    -0.164392   
N        N      0.969100000000     0.632700000000     0.065200000000    -0.164392   
N        N      0.125200000000     0.492800000000     0.758900000000    -0.164392   
N        N      0.309100000000     0.491800000000     0.704600000000    -0.164392   
N        N      0.606800000000     0.261900000000     0.484200000000    -0.164392   
N        N      0.790900000000     0.208100000000     0.484400000000    -0.164392   
N        N      0.456400000000     0.368200000000     0.430700000000    -0.164392   
N        N      0.464900000000     0.431600000000     0.364300000000    -0.164392   
N        N      0.536200000000     0.432500000000     0.630100000000    -0.164392   
N        N      0.530900000000     0.367300000000     0.565200000000    -0.164392   
N        N      0.374800000000     0.507200000000     0.258900000000    -0.164392   
N        N      0.190900000000     0.508200000000     0.204600000000    -0.164392   


