data_VEJYUF01_original

_audit_creation_method RASPA-1.0
_audit_creation_date 2022-1-29
_audit_author_name 'Felipe Lopes de Oliveira <felipe.lopes.oliveira@ibm.com>'

_cell_length_a    15.379
_cell_length_b    15.449
_cell_length_c    18.407
_cell_angle_alpha 90
_cell_angle_beta  90
_cell_angle_gamma 90
_cell_volume      4373.32

_symmetry_cell_setting          triclinic
_symmetry_space_group_name_Hall 'P 1'
_symmetry_space_group_name_H-M  'P 1'
_symmetry_Int_Tables_number     1

_symmetry_equiv_pos_as_xyz 'x,y,z'

loop_
_atom_site_label
_atom_site_type_symbol
_atom_site_fract_x
_atom_site_fract_y
_atom_site_fract_z
_atom_site_charge
Zn       Zn     0.799480000000     0.860370000000     0.593860000000     0.339601   
Zn       Zn     0.491210000000     0.664180000000     0.684660000000     0.339601   
Zn       Zn     0.700520000000     0.139630000000     0.093860000000     0.339601   
Zn       Zn     0.008790000000     0.335820000000     0.184660000000     0.339601   
Zn       Zn     0.200520000000     0.360370000000     0.906140000000     0.339601   
Zn       Zn     0.508790000000     0.164180000000     0.815340000000     0.339601   
Zn       Zn     0.299480000000     0.639630000000     0.406140000000     0.339601   
Zn       Zn     0.991210000000     0.835820000000     0.315340000000     0.339601   
Zn       Zn     0.200520000000     0.139630000000     0.406140000000     0.339601   
Zn       Zn     0.508790000000     0.335820000000     0.315340000000     0.339601   
Zn       Zn     0.299480000000     0.860370000000     0.906140000000     0.339601   
Zn       Zn     0.991210000000     0.664180000000     0.815340000000     0.339601   
Zn       Zn     0.799480000000     0.639630000000     0.093860000000     0.339601   
Zn       Zn     0.491210000000     0.835820000000     0.184660000000     0.339601   
Zn       Zn     0.700520000000     0.360370000000     0.593860000000     0.339601   
Zn       Zn     0.008790000000     0.164180000000     0.684660000000     0.339601   
H        H      0.678800000000     0.719400000000     0.653200000000     0.0134952  
H        H      0.603600000000     0.941200000000     0.575700000000     0.0134952  
H        H      0.474500000000     0.860900000000     0.614100000000     0.0134952  
H        H      0.936800000000     0.811600000000     0.477700000000     0.0134952  
H        H      0.733000000000     0.951800000000     0.445400000000     0.0134952  
H        H      0.811700000000     0.939100000000     0.332000000000     0.0134952  
H        H      0.936700000000     0.009700000000     0.595200000000     0.0134952  
H        H      0.763600000000     0.964000000000     0.742800000000     0.0134952  
H        H      0.857600000000     0.078800000000     0.786700000000     0.0134952  
H        H      0.901800000000     0.811300000000     0.730200000000     0.0134952  
H        H      0.941500000000     0.578100000000     0.659900000000     0.0134952  
H        H      0.863300000000     0.657400000000     0.565800000000     0.0134952  
H        H      0.821200000000     0.280600000000     0.153200000000     0.0134952  
H        H      0.896400000000     0.058800000000     0.075700000000     0.0134952  
H        H      0.025500000000     0.139100000000     0.114100000000     0.0134952  
H        H      0.563200000000     0.188400000000     0.977700000000     0.0134952  
H        H      0.767000000000     0.048200000000     0.945400000000     0.0134952  
H        H      0.688300000000     0.060900000000     0.832000000000     0.0134952  
H        H      0.563300000000     0.990300000000     0.095200000000     0.0134952  
H        H      0.736400000000     0.036000000000     0.242800000000     0.0134952  
H        H      0.642400000000     0.921200000000     0.286700000000     0.0134952  
H        H      0.598200000000     0.188700000000     0.230200000000     0.0134952  
H        H      0.558500000000     0.421900000000     0.159900000000     0.0134952  
H        H      0.636700000000     0.342600000000     0.065800000000     0.0134952  
H        H      0.321200000000     0.219400000000     0.846800000000     0.0134952  
H        H      0.396400000000     0.441200000000     0.924300000000     0.0134952  
H        H      0.525500000000     0.360900000000     0.885900000000     0.0134952  
H        H      0.063200000000     0.311600000000     0.022300000000     0.0134952  
H        H      0.267000000000     0.451800000000     0.054600000000     0.0134952  
H        H      0.188300000000     0.439100000000     0.168000000000     0.0134952  
H        H      0.063300000000     0.509700000000     0.904800000000     0.0134952  
H        H      0.236400000000     0.464000000000     0.757200000000     0.0134952  
H        H      0.142400000000     0.578800000000     0.713300000000     0.0134952  
H        H      0.098200000000     0.311300000000     0.769800000000     0.0134952  
H        H      0.058500000000     0.078100000000     0.840100000000     0.0134952  
H        H      0.136700000000     0.157400000000     0.934200000000     0.0134952  
H        H      0.178800000000     0.780600000000     0.346800000000     0.0134952  
H        H      0.103600000000     0.558800000000     0.424300000000     0.0134952  
H        H      0.974500000000     0.639100000000     0.385900000000     0.0134952  
H        H      0.436800000000     0.688400000000     0.522300000000     0.0134952  
H        H      0.233000000000     0.548200000000     0.554600000000     0.0134952  
H        H      0.311700000000     0.560900000000     0.668000000000     0.0134952  
H        H      0.436700000000     0.490300000000     0.404800000000     0.0134952  
H        H      0.263600000000     0.536000000000     0.257200000000     0.0134952  
H        H      0.357600000000     0.421200000000     0.213300000000     0.0134952  
H        H      0.401800000000     0.688700000000     0.269800000000     0.0134952  
H        H      0.441500000000     0.921900000000     0.340100000000     0.0134952  
H        H      0.363300000000     0.842600000000     0.434200000000     0.0134952  
H        H      0.321200000000     0.280600000000     0.346800000000     0.0134952  
H        H      0.396400000000     0.058800000000     0.424300000000     0.0134952  
H        H      0.525500000000     0.139100000000     0.385900000000     0.0134952  
H        H      0.063200000000     0.188400000000     0.522300000000     0.0134952  
H        H      0.267000000000     0.048200000000     0.554600000000     0.0134952  
H        H      0.188300000000     0.060900000000     0.668000000000     0.0134952  
H        H      0.063300000000     0.990300000000     0.404800000000     0.0134952  
H        H      0.236400000000     0.036000000000     0.257200000000     0.0134952  
H        H      0.142400000000     0.921200000000     0.213300000000     0.0134952  
H        H      0.098200000000     0.188700000000     0.269800000000     0.0134952  
H        H      0.058500000000     0.421900000000     0.340100000000     0.0134952  
H        H      0.136700000000     0.342600000000     0.434200000000     0.0134952  
H        H      0.178800000000     0.719400000000     0.846800000000     0.0134952  
H        H      0.103600000000     0.941200000000     0.924300000000     0.0134952  
H        H      0.974500000000     0.860900000000     0.885900000000     0.0134952  
H        H      0.436800000000     0.811600000000     0.022300000000     0.0134952  
H        H      0.233000000000     0.951800000000     0.054600000000     0.0134952  
H        H      0.311700000000     0.939100000000     0.168000000000     0.0134952  
H        H      0.436700000000     0.009700000000     0.904800000000     0.0134952  
H        H      0.263600000000     0.964000000000     0.757200000000     0.0134952  
H        H      0.357600000000     0.078800000000     0.713300000000     0.0134952  
H        H      0.401800000000     0.811300000000     0.769800000000     0.0134952  
H        H      0.441500000000     0.578100000000     0.840100000000     0.0134952  
H        H      0.363300000000     0.657400000000     0.934200000000     0.0134952  
H        H      0.678800000000     0.780600000000     0.153200000000     0.0134952  
H        H      0.603600000000     0.558800000000     0.075700000000     0.0134952  
H        H      0.474500000000     0.639100000000     0.114100000000     0.0134952  
H        H      0.936800000000     0.688400000000     0.977700000000     0.0134952  
H        H      0.733000000000     0.548200000000     0.945400000000     0.0134952  
H        H      0.811700000000     0.560900000000     0.832000000000     0.0134952  
H        H      0.936700000000     0.490300000000     0.095200000000     0.0134952  
H        H      0.763600000000     0.536000000000     0.242800000000     0.0134952  
H        H      0.857600000000     0.421200000000     0.286700000000     0.0134952  
H        H      0.901800000000     0.688700000000     0.230200000000     0.0134952  
H        H      0.941500000000     0.921900000000     0.159900000000     0.0134952  
H        H      0.863300000000     0.842600000000     0.065800000000     0.0134952  
H        H      0.821200000000     0.219400000000     0.653200000000     0.0134952  
H        H      0.896400000000     0.441200000000     0.575700000000     0.0134952  
H        H      0.025500000000     0.360900000000     0.614100000000     0.0134952  
H        H      0.563200000000     0.311600000000     0.477700000000     0.0134952  
H        H      0.767000000000     0.451800000000     0.445400000000     0.0134952  
H        H      0.688300000000     0.439100000000     0.332000000000     0.0134952  
H        H      0.563300000000     0.509700000000     0.595200000000     0.0134952  
H        H      0.736400000000     0.464000000000     0.742800000000     0.0134952  
H        H      0.642400000000     0.578800000000     0.786700000000     0.0134952  
H        H      0.598200000000     0.311300000000     0.730200000000     0.0134952  
H        H      0.558500000000     0.078100000000     0.659900000000     0.0134952  
H        H      0.636700000000     0.157400000000     0.565800000000     0.0134952  
C        C      0.643500000000     0.765400000000     0.639400000000     0.0414378  
C        C      0.603400000000     0.886500000000     0.596900000000     0.0414378  
C        C      0.531600000000     0.841800000000     0.618000000000     0.0414378  
C        C      0.895100000000     0.845900000000     0.455200000000     0.0414378  
C        C      0.784500000000     0.921300000000     0.438600000000     0.0414378  
C        C      0.828400000000     0.914600000000     0.376000000000     0.0414378  
C        C      0.904800000000     0.012700000000     0.638000000000     0.0414378  
C        C      0.810500000000     0.987300000000     0.717700000000     0.0414378  
C        C      0.862700000000     0.051000000000     0.742100000000     0.0414378  
C        C      0.902100000000     0.762500000000     0.700600000000     0.0414378  
C        C      0.924100000000     0.635600000000     0.662900000000     0.0414378  
C        C      0.880500000000     0.679400000000     0.610600000000     0.0414378  
C        C      0.856500000000     0.234600000000     0.139400000000     0.0414378  
C        C      0.896600000000     0.113500000000     0.096900000000     0.0414378  
C        C      0.968400000000     0.158200000000     0.118000000000     0.0414378  
C        C      0.604900000000     0.154100000000     0.955200000000     0.0414378  
C        C      0.715500000000     0.078700000000     0.938600000000     0.0414378  
C        C      0.671600000000     0.085400000000     0.876000000000     0.0414378  
C        C      0.595200000000     0.987300000000     0.138000000000     0.0414378  
C        C      0.689500000000     0.012700000000     0.217700000000     0.0414378  
C        C      0.637300000000     0.949000000000     0.242100000000     0.0414378  
C        C      0.597900000000     0.237500000000     0.200600000000     0.0414378  
C        C      0.575900000000     0.364400000000     0.162900000000     0.0414378  
C        C      0.619500000000     0.320600000000     0.110600000000     0.0414378  
C        C      0.356500000000     0.265400000000     0.860600000000     0.0414378  
C        C      0.396600000000     0.386500000000     0.903100000000     0.0414378  
C        C      0.468400000000     0.341800000000     0.882000000000     0.0414378  
C        C      0.104900000000     0.345900000000     0.044800000000     0.0414378  
C        C      0.215500000000     0.421300000000     0.061400000000     0.0414378  
C        C      0.171600000000     0.414600000000     0.124000000000     0.0414378  
C        C      0.095200000000     0.512700000000     0.862000000000     0.0414378  
C        C      0.189500000000     0.487300000000     0.782300000000     0.0414378  
C        C      0.137300000000     0.551000000000     0.757900000000     0.0414378  
C        C      0.097900000000     0.262500000000     0.799400000000     0.0414378  
C        C      0.075900000000     0.135600000000     0.837100000000     0.0414378  
C        C      0.119500000000     0.179400000000     0.889400000000     0.0414378  
C        C      0.143500000000     0.734600000000     0.360600000000     0.0414378  
C        C      0.103400000000     0.613500000000     0.403100000000     0.0414378  
C        C      0.031600000000     0.658200000000     0.382000000000     0.0414378  
C        C      0.395100000000     0.654100000000     0.544800000000     0.0414378  
C        C      0.284500000000     0.578700000000     0.561400000000     0.0414378  
C        C      0.328400000000     0.585400000000     0.624000000000     0.0414378  
C        C      0.404800000000     0.487300000000     0.362000000000     0.0414378  
C        C      0.310500000000     0.512700000000     0.282300000000     0.0414378  
C        C      0.362700000000     0.449000000000     0.257900000000     0.0414378  
C        C      0.402100000000     0.737500000000     0.299400000000     0.0414378  
C        C      0.424100000000     0.864400000000     0.337100000000     0.0414378  
C        C      0.380500000000     0.820600000000     0.389400000000     0.0414378  
C        C      0.356500000000     0.234600000000     0.360600000000     0.0414378  
C        C      0.396600000000     0.113500000000     0.403100000000     0.0414378  
C        C      0.468400000000     0.158200000000     0.382000000000     0.0414378  
C        C      0.104900000000     0.154100000000     0.544800000000     0.0414378  
C        C      0.215500000000     0.078700000000     0.561400000000     0.0414378  
C        C      0.171600000000     0.085400000000     0.624000000000     0.0414378  
C        C      0.095200000000     0.987300000000     0.362000000000     0.0414378  
C        C      0.189500000000     0.012700000000     0.282300000000     0.0414378  
C        C      0.137300000000     0.949000000000     0.257900000000     0.0414378  
C        C      0.097900000000     0.237500000000     0.299400000000     0.0414378  
C        C      0.075900000000     0.364400000000     0.337100000000     0.0414378  
C        C      0.119500000000     0.320600000000     0.389400000000     0.0414378  
C        C      0.143500000000     0.765400000000     0.860600000000     0.0414378  
C        C      0.103400000000     0.886500000000     0.903100000000     0.0414378  
C        C      0.031600000000     0.841800000000     0.882000000000     0.0414378  
C        C      0.395100000000     0.845900000000     0.044800000000     0.0414378  
C        C      0.284500000000     0.921300000000     0.061400000000     0.0414378  
C        C      0.328400000000     0.914600000000     0.124000000000     0.0414378  
C        C      0.404800000000     0.012700000000     0.862000000000     0.0414378  
C        C      0.310500000000     0.987300000000     0.782300000000     0.0414378  
C        C      0.362700000000     0.051000000000     0.757900000000     0.0414378  
C        C      0.402100000000     0.762500000000     0.799400000000     0.0414378  
C        C      0.424100000000     0.635600000000     0.837100000000     0.0414378  
C        C      0.380500000000     0.679400000000     0.889400000000     0.0414378  
C        C      0.643500000000     0.734600000000     0.139400000000     0.0414378  
C        C      0.603400000000     0.613500000000     0.096900000000     0.0414378  
C        C      0.531600000000     0.658200000000     0.118000000000     0.0414378  
C        C      0.895100000000     0.654100000000     0.955200000000     0.0414378  
C        C      0.784500000000     0.578700000000     0.938600000000     0.0414378  
C        C      0.828400000000     0.585400000000     0.876000000000     0.0414378  
C        C      0.904800000000     0.487300000000     0.138000000000     0.0414378  
C        C      0.810500000000     0.512700000000     0.217700000000     0.0414378  
C        C      0.862700000000     0.449000000000     0.242100000000     0.0414378  
C        C      0.902100000000     0.737500000000     0.200600000000     0.0414378  
C        C      0.924100000000     0.864400000000     0.162900000000     0.0414378  
C        C      0.880500000000     0.820600000000     0.110600000000     0.0414378  
C        C      0.856500000000     0.265400000000     0.639400000000     0.0414378  
C        C      0.896600000000     0.386500000000     0.596900000000     0.0414378  
C        C      0.968400000000     0.341800000000     0.618000000000     0.0414378  
C        C      0.604900000000     0.345900000000     0.455200000000     0.0414378  
C        C      0.715500000000     0.421300000000     0.438600000000     0.0414378  
C        C      0.671600000000     0.414600000000     0.376000000000     0.0414378  
C        C      0.595200000000     0.512700000000     0.638000000000     0.0414378  
C        C      0.689500000000     0.487300000000     0.717700000000     0.0414378  
C        C      0.637300000000     0.551000000000     0.742100000000     0.0414378  
C        C      0.597900000000     0.262500000000     0.700600000000     0.0414378  
C        C      0.575900000000     0.135600000000     0.662900000000     0.0414378  
C        C      0.619500000000     0.179400000000     0.610600000000     0.0414378  
N        N      0.557600000000     0.764200000000     0.645800000000    -0.1673     
N        N      0.674100000000     0.838100000000     0.611800000000    -0.1673     
N        N      0.900000000000     0.867000000000     0.386710000000    -0.1673     
N        N      0.827700000000     0.876200000000     0.490260000000    -0.1673     
N        N      0.923500000000     0.067800000000     0.691410000000    -0.1673     
N        N      0.837400000000     0.962900000000     0.651150000000    -0.1673     
N        N      0.938300000000     0.688500000000     0.720140000000    -0.1673     
N        N      0.866400000000     0.761000000000     0.635020000000    -0.1673     
N        N      0.942400000000     0.235800000000     0.145800000000    -0.1673     
N        N      0.825900000000     0.161900000000     0.111800000000    -0.1673     
N        N      0.600000000000     0.133000000000     0.886710000000    -0.1673     
N        N      0.672300000000     0.123800000000     0.990260000000    -0.1673     
N        N      0.576500000000     0.932200000000     0.191410000000    -0.1673     
N        N      0.662600000000     0.037100000000     0.151150000000    -0.1673     
N        N      0.561700000000     0.311500000000     0.220140000000    -0.1673     
N        N      0.633600000000     0.239000000000     0.135020000000    -0.1673     
N        N      0.442400000000     0.264200000000     0.854200000000    -0.1673     
N        N      0.325900000000     0.338100000000     0.888200000000    -0.1673     
N        N      0.100000000000     0.367000000000     0.113290000000    -0.1673     
N        N      0.172300000000     0.376200000000     0.009740000000    -0.1673     
N        N      0.076500000000     0.567800000000     0.808590000000    -0.1673     
N        N      0.162600000000     0.462900000000     0.848850000000    -0.1673     
N        N      0.061700000000     0.188500000000     0.779860000000    -0.1673     
N        N      0.133600000000     0.261000000000     0.864980000000    -0.1673     
N        N      0.057600000000     0.735800000000     0.354200000000    -0.1673     
N        N      0.174100000000     0.661900000000     0.388200000000    -0.1673     
N        N      0.400000000000     0.633000000000     0.613290000000    -0.1673     
N        N      0.327700000000     0.623800000000     0.509740000000    -0.1673     
N        N      0.423500000000     0.432200000000     0.308590000000    -0.1673     
N        N      0.337400000000     0.537100000000     0.348850000000    -0.1673     
N        N      0.438300000000     0.811500000000     0.279860000000    -0.1673     
N        N      0.366400000000     0.739000000000     0.364980000000    -0.1673     
N        N      0.442400000000     0.235800000000     0.354200000000    -0.1673     
N        N      0.325900000000     0.161900000000     0.388200000000    -0.1673     
N        N      0.100000000000     0.133000000000     0.613290000000    -0.1673     
N        N      0.172300000000     0.123800000000     0.509740000000    -0.1673     
N        N      0.076500000000     0.932200000000     0.308590000000    -0.1673     
N        N      0.162600000000     0.037100000000     0.348850000000    -0.1673     
N        N      0.061700000000     0.311500000000     0.279860000000    -0.1673     
N        N      0.133600000000     0.239000000000     0.364980000000    -0.1673     
N        N      0.057600000000     0.764200000000     0.854200000000    -0.1673     
N        N      0.174100000000     0.838100000000     0.888200000000    -0.1673     
N        N      0.400000000000     0.867000000000     0.113290000000    -0.1673     
N        N      0.327700000000     0.876200000000     0.009740000000    -0.1673     
N        N      0.423500000000     0.067800000000     0.808590000000    -0.1673     
N        N      0.337400000000     0.962900000000     0.848850000000    -0.1673     
N        N      0.438300000000     0.688500000000     0.779860000000    -0.1673     
N        N      0.366400000000     0.761000000000     0.864980000000    -0.1673     
N        N      0.557600000000     0.735800000000     0.145800000000    -0.1673     
N        N      0.674100000000     0.661900000000     0.111800000000    -0.1673     
N        N      0.900000000000     0.633000000000     0.886710000000    -0.1673     
N        N      0.827700000000     0.623800000000     0.990260000000    -0.1673     
N        N      0.923500000000     0.432200000000     0.191410000000    -0.1673     
N        N      0.837400000000     0.537100000000     0.151150000000    -0.1673     
N        N      0.938300000000     0.811500000000     0.220140000000    -0.1673     
N        N      0.866400000000     0.739000000000     0.135020000000    -0.1673     
N        N      0.942400000000     0.264200000000     0.645800000000    -0.1673     
N        N      0.825900000000     0.338100000000     0.611800000000    -0.1673     
N        N      0.600000000000     0.367000000000     0.386710000000    -0.1673     
N        N      0.672300000000     0.376200000000     0.490260000000    -0.1673     
N        N      0.576500000000     0.567800000000     0.691410000000    -0.1673     
N        N      0.662600000000     0.462900000000     0.651150000000    -0.1673     
N        N      0.561700000000     0.188500000000     0.720140000000    -0.1673     
N        N      0.633600000000     0.261000000000     0.635020000000    -0.1673     


