data_VEJYIT_original

_audit_creation_method RASPA-1.0
_audit_creation_date 2022-1-31
_audit_author_name 'Felipe Lopes de Oliveira <felipe.lopes.oliveira@ibm.com>'

_cell_length_a    9.679
_cell_length_b    24.114
_cell_length_c    24.45
_cell_angle_alpha 90
_cell_angle_beta  90
_cell_angle_gamma 90
_cell_volume      5706.62

_symmetry_cell_setting          triclinic
_symmetry_space_group_name_Hall 'P 1'
_symmetry_space_group_name_H-M  'P 1'
_symmetry_Int_Tables_number     1

_symmetry_equiv_pos_as_xyz 'x,y,z'

loop_
_atom_site_label
_atom_site_type_symbol
_atom_site_fract_x
_atom_site_fract_y
_atom_site_fract_z
_atom_site_charge
Zn       Zn     0.015110000000     0.825350000000     0.498780000000     0.337391   
Zn       Zn     0.002040000000     0.998210000000     0.676130000000     0.337391   
Zn       Zn     0.484890000000     0.174650000000     0.998780000000     0.337391   
Zn       Zn     0.497960000000     0.001790000000     0.176130000000     0.337391   
Zn       Zn     0.984890000000     0.325350000000     0.001220000000     0.337391   
Zn       Zn     0.997960000000     0.498210000000     0.823870000000     0.337391   
Zn       Zn     0.515110000000     0.674650000000     0.501220000000     0.337391   
Zn       Zn     0.502040000000     0.501790000000     0.323870000000     0.337391   
Zn       Zn     0.984890000000     0.174650000000     0.501220000000     0.337391   
Zn       Zn     0.997960000000     0.001790000000     0.323870000000     0.337391   
Zn       Zn     0.515110000000     0.825350000000     0.001220000000     0.337391   
Zn       Zn     0.502040000000     0.998210000000     0.823870000000     0.337391   
Zn       Zn     0.015110000000     0.674650000000     0.998780000000     0.337391   
Zn       Zn     0.002040000000     0.501790000000     0.176130000000     0.337391   
Zn       Zn     0.484890000000     0.325350000000     0.498780000000     0.337391   
Zn       Zn     0.497960000000     0.498210000000     0.676130000000     0.337391   
H        H      0.978000000000     0.945500000000     0.557700000000     0.0146048  
H        H      0.302800000000     0.965200000000     0.725600000000     0.0146048  
H        H      0.973900000000     0.725600000000     0.583600000000     0.0146048  
H        H      0.006100000000     0.051700000000     0.795600000000     0.0146048  
H        H      0.718500000000     0.773800000000     0.467100000000     0.0146048  
H        H      0.205400000000     0.051400000000     0.857000000000     0.0146048  
H        H      0.073900000000     0.938900000000     0.438400000000     0.0146048  
H        H      0.770000000000     0.664800000000     0.586800000000     0.0146048  
H        H      0.136100000000     0.808300000000     0.615600000000     0.0146048  
H        H      0.808200000000     0.894100000000     0.323500000000     0.0146048  
H        H      0.131300000000     0.876900000000     0.690600000000     0.0146048  
H        H      0.811500000000     0.821200000000     0.393700000000     0.0146048  
H        H      0.522000000000     0.054500000000     0.057700000000     0.0146048  
H        H      0.197200000000     0.034800000000     0.225600000000     0.0146048  
H        H      0.526100000000     0.274400000000     0.083600000000     0.0146048  
H        H      0.493900000000     0.948300000000     0.295600000000     0.0146048  
H        H      0.781500000000     0.226200000000     0.967100000000     0.0146048  
H        H      0.294600000000     0.948600000000     0.357000000000     0.0146048  
H        H      0.426100000000     0.061100000000     0.938400000000     0.0146048  
H        H      0.730000000000     0.335200000000     0.086800000000     0.0146048  
H        H      0.363900000000     0.191700000000     0.115600000000     0.0146048  
H        H      0.691800000000     0.105900000000     0.823500000000     0.0146048  
H        H      0.368700000000     0.123100000000     0.190600000000     0.0146048  
H        H      0.688500000000     0.178800000000     0.893700000000     0.0146048  
H        H      0.022000000000     0.445500000000     0.942300000000     0.0146048  
H        H      0.697200000000     0.465200000000     0.774400000000     0.0146048  
H        H      0.026100000000     0.225600000000     0.916400000000     0.0146048  
H        H      0.993900000000     0.551700000000     0.704400000000     0.0146048  
H        H      0.281500000000     0.273800000000     0.032900000000     0.0146048  
H        H      0.794600000000     0.551400000000     0.643000000000     0.0146048  
H        H      0.926100000000     0.438900000000     0.061600000000     0.0146048  
H        H      0.230000000000     0.164800000000     0.913200000000     0.0146048  
H        H      0.863900000000     0.308300000000     0.884400000000     0.0146048  
H        H      0.191800000000     0.394100000000     0.176500000000     0.0146048  
H        H      0.868700000000     0.376900000000     0.809400000000     0.0146048  
H        H      0.188500000000     0.321200000000     0.106300000000     0.0146048  
H        H      0.478000000000     0.554500000000     0.442300000000     0.0146048  
H        H      0.802800000000     0.534800000000     0.274400000000     0.0146048  
H        H      0.473900000000     0.774400000000     0.416400000000     0.0146048  
H        H      0.506100000000     0.448300000000     0.204400000000     0.0146048  
H        H      0.218500000000     0.726200000000     0.532900000000     0.0146048  
H        H      0.705400000000     0.448600000000     0.143000000000     0.0146048  
H        H      0.573900000000     0.561100000000     0.561600000000     0.0146048  
H        H      0.270000000000     0.835200000000     0.413200000000     0.0146048  
H        H      0.636100000000     0.691700000000     0.384400000000     0.0146048  
H        H      0.308200000000     0.605900000000     0.676500000000     0.0146048  
H        H      0.631300000000     0.623100000000     0.309400000000     0.0146048  
H        H      0.311500000000     0.678800000000     0.606300000000     0.0146048  
H        H      0.022000000000     0.054500000000     0.442300000000     0.0146048  
H        H      0.697200000000     0.034800000000     0.274400000000     0.0146048  
H        H      0.026100000000     0.274400000000     0.416400000000     0.0146048  
H        H      0.993900000000     0.948300000000     0.204400000000     0.0146048  
H        H      0.281500000000     0.226200000000     0.532900000000     0.0146048  
H        H      0.794600000000     0.948600000000     0.143000000000     0.0146048  
H        H      0.926100000000     0.061100000000     0.561600000000     0.0146048  
H        H      0.230000000000     0.335200000000     0.413200000000     0.0146048  
H        H      0.863900000000     0.191700000000     0.384400000000     0.0146048  
H        H      0.191800000000     0.105900000000     0.676500000000     0.0146048  
H        H      0.868700000000     0.123100000000     0.309400000000     0.0146048  
H        H      0.188500000000     0.178800000000     0.606300000000     0.0146048  
H        H      0.478000000000     0.945500000000     0.942300000000     0.0146048  
H        H      0.802800000000     0.965200000000     0.774400000000     0.0146048  
H        H      0.473900000000     0.725600000000     0.916400000000     0.0146048  
H        H      0.506100000000     0.051700000000     0.704400000000     0.0146048  
H        H      0.218500000000     0.773800000000     0.032900000000     0.0146048  
H        H      0.705400000000     0.051400000000     0.643000000000     0.0146048  
H        H      0.573900000000     0.938900000000     0.061600000000     0.0146048  
H        H      0.270000000000     0.664800000000     0.913200000000     0.0146048  
H        H      0.636100000000     0.808300000000     0.884400000000     0.0146048  
H        H      0.308200000000     0.894100000000     0.176500000000     0.0146048  
H        H      0.631300000000     0.876900000000     0.809400000000     0.0146048  
H        H      0.311500000000     0.821200000000     0.106300000000     0.0146048  
H        H      0.978000000000     0.554500000000     0.057700000000     0.0146048  
H        H      0.302800000000     0.534800000000     0.225600000000     0.0146048  
H        H      0.973900000000     0.774400000000     0.083600000000     0.0146048  
H        H      0.006100000000     0.448300000000     0.295600000000     0.0146048  
H        H      0.718500000000     0.726200000000     0.967100000000     0.0146048  
H        H      0.205400000000     0.448600000000     0.357000000000     0.0146048  
H        H      0.073900000000     0.561100000000     0.938400000000     0.0146048  
H        H      0.770000000000     0.835200000000     0.086800000000     0.0146048  
H        H      0.136100000000     0.691700000000     0.115600000000     0.0146048  
H        H      0.808200000000     0.605900000000     0.823500000000     0.0146048  
H        H      0.131300000000     0.623100000000     0.190600000000     0.0146048  
H        H      0.811500000000     0.678800000000     0.893700000000     0.0146048  
H        H      0.522000000000     0.445500000000     0.557700000000     0.0146048  
H        H      0.197200000000     0.465200000000     0.725600000000     0.0146048  
H        H      0.526100000000     0.225600000000     0.583600000000     0.0146048  
H        H      0.493900000000     0.551700000000     0.795600000000     0.0146048  
H        H      0.781500000000     0.273800000000     0.467100000000     0.0146048  
H        H      0.294600000000     0.551400000000     0.857000000000     0.0146048  
H        H      0.426100000000     0.438900000000     0.438400000000     0.0146048  
H        H      0.730000000000     0.164800000000     0.586800000000     0.0146048  
H        H      0.363900000000     0.308300000000     0.615600000000     0.0146048  
H        H      0.691800000000     0.394100000000     0.323500000000     0.0146048  
H        H      0.368700000000     0.376900000000     0.690600000000     0.0146048  
H        H      0.688500000000     0.321200000000     0.393700000000     0.0146048  
C        C      0.017200000000     0.919000000000     0.581900000000     0.0376764  
C        C      0.253400000000     0.987600000000     0.750800000000     0.0376764  
C        C      0.896600000000     0.727800000000     0.559800000000     0.0376764  
C        C      0.091900000000     0.034000000000     0.788400000000     0.0376764  
C        C      0.758400000000     0.753700000000     0.496700000000     0.0376764  
C        C      0.201600000000     0.034100000000     0.822100000000     0.0376764  
C        C      0.007800000000     0.918200000000     0.418200000000     0.0376764  
C        C      0.784700000000     0.694300000000     0.561800000000     0.0376764  
C        C      0.102600000000     0.845200000000     0.612700000000     0.0376764  
C        C      0.864200000000     0.894200000000     0.355500000000     0.0376764  
C        C      0.099500000000     0.882800000000     0.654300000000     0.0376764  
C        C      0.864900000000     0.854300000000     0.394500000000     0.0376764  
C        C      0.482800000000     0.081000000000     0.081900000000     0.0376764  
C        C      0.246600000000     0.012400000000     0.250800000000     0.0376764  
C        C      0.603400000000     0.272200000000     0.059800000000     0.0376764  
C        C      0.408100000000     0.966000000000     0.288400000000     0.0376764  
C        C      0.741600000000     0.246300000000     0.996700000000     0.0376764  
C        C      0.298400000000     0.965900000000     0.322100000000     0.0376764  
C        C      0.492200000000     0.081800000000     0.918200000000     0.0376764  
C        C      0.715300000000     0.305700000000     0.061800000000     0.0376764  
C        C      0.397400000000     0.154800000000     0.112700000000     0.0376764  
C        C      0.635800000000     0.105800000000     0.855500000000     0.0376764  
C        C      0.400500000000     0.117200000000     0.154300000000     0.0376764  
C        C      0.635100000000     0.145700000000     0.894500000000     0.0376764  
C        C      0.982800000000     0.419000000000     0.918100000000     0.0376764  
C        C      0.746600000000     0.487600000000     0.749200000000     0.0376764  
C        C      0.103400000000     0.227800000000     0.940200000000     0.0376764  
C        C      0.908100000000     0.534000000000     0.711600000000     0.0376764  
C        C      0.241600000000     0.253700000000     0.003300000000     0.0376764  
C        C      0.798400000000     0.534100000000     0.677900000000     0.0376764  
C        C      0.992200000000     0.418200000000     0.081800000000     0.0376764  
C        C      0.215300000000     0.194300000000     0.938200000000     0.0376764  
C        C      0.897400000000     0.345200000000     0.887300000000     0.0376764  
C        C      0.135800000000     0.394200000000     0.144500000000     0.0376764  
C        C      0.900500000000     0.382800000000     0.845700000000     0.0376764  
C        C      0.135100000000     0.354300000000     0.105500000000     0.0376764  
C        C      0.517200000000     0.581000000000     0.418100000000     0.0376764  
C        C      0.753400000000     0.512400000000     0.249200000000     0.0376764  
C        C      0.396600000000     0.772200000000     0.440200000000     0.0376764  
C        C      0.591900000000     0.466000000000     0.211600000000     0.0376764  
C        C      0.258400000000     0.746300000000     0.503300000000     0.0376764  
C        C      0.701600000000     0.465900000000     0.177900000000     0.0376764  
C        C      0.507800000000     0.581800000000     0.581800000000     0.0376764  
C        C      0.284700000000     0.805700000000     0.438200000000     0.0376764  
C        C      0.602600000000     0.654800000000     0.387300000000     0.0376764  
C        C      0.364200000000     0.605800000000     0.644500000000     0.0376764  
C        C      0.599500000000     0.617200000000     0.345700000000     0.0376764  
C        C      0.364900000000     0.645700000000     0.605500000000     0.0376764  
C        C      0.982800000000     0.081000000000     0.418100000000     0.0376764  
C        C      0.746600000000     0.012400000000     0.249200000000     0.0376764  
C        C      0.103400000000     0.272200000000     0.440200000000     0.0376764  
C        C      0.908100000000     0.966000000000     0.211600000000     0.0376764  
C        C      0.241600000000     0.246300000000     0.503300000000     0.0376764  
C        C      0.798400000000     0.965900000000     0.177900000000     0.0376764  
C        C      0.992200000000     0.081800000000     0.581800000000     0.0376764  
C        C      0.215300000000     0.305700000000     0.438200000000     0.0376764  
C        C      0.897400000000     0.154800000000     0.387300000000     0.0376764  
C        C      0.135800000000     0.105800000000     0.644500000000     0.0376764  
C        C      0.900500000000     0.117200000000     0.345700000000     0.0376764  
C        C      0.135100000000     0.145700000000     0.605500000000     0.0376764  
C        C      0.517200000000     0.919000000000     0.918100000000     0.0376764  
C        C      0.753400000000     0.987600000000     0.749200000000     0.0376764  
C        C      0.396600000000     0.727800000000     0.940200000000     0.0376764  
C        C      0.591900000000     0.034000000000     0.711600000000     0.0376764  
C        C      0.258400000000     0.753700000000     0.003300000000     0.0376764  
C        C      0.701600000000     0.034100000000     0.677900000000     0.0376764  
C        C      0.507800000000     0.918200000000     0.081800000000     0.0376764  
C        C      0.284700000000     0.694300000000     0.938200000000     0.0376764  
C        C      0.602600000000     0.845200000000     0.887300000000     0.0376764  
C        C      0.364200000000     0.894200000000     0.144500000000     0.0376764  
C        C      0.599500000000     0.882800000000     0.845700000000     0.0376764  
C        C      0.364900000000     0.854300000000     0.105500000000     0.0376764  
C        C      0.017200000000     0.581000000000     0.081900000000     0.0376764  
C        C      0.253400000000     0.512400000000     0.250800000000     0.0376764  
C        C      0.896600000000     0.772200000000     0.059800000000     0.0376764  
C        C      0.091900000000     0.466000000000     0.288400000000     0.0376764  
C        C      0.758400000000     0.746300000000     0.996700000000     0.0376764  
C        C      0.201600000000     0.465900000000     0.322100000000     0.0376764  
C        C      0.007800000000     0.581800000000     0.918200000000     0.0376764  
C        C      0.784700000000     0.805700000000     0.061800000000     0.0376764  
C        C      0.102600000000     0.654800000000     0.112700000000     0.0376764  
C        C      0.864200000000     0.605800000000     0.855500000000     0.0376764  
C        C      0.099500000000     0.617200000000     0.154300000000     0.0376764  
C        C      0.864900000000     0.645700000000     0.894500000000     0.0376764  
C        C      0.482800000000     0.419000000000     0.581900000000     0.0376764  
C        C      0.246600000000     0.487600000000     0.750800000000     0.0376764  
C        C      0.603400000000     0.227800000000     0.559800000000     0.0376764  
C        C      0.408100000000     0.534000000000     0.788400000000     0.0376764  
C        C      0.741600000000     0.253700000000     0.496700000000     0.0376764  
C        C      0.298400000000     0.534100000000     0.822100000000     0.0376764  
C        C      0.492200000000     0.418200000000     0.418200000000     0.0376764  
C        C      0.715300000000     0.194300000000     0.561800000000     0.0376764  
C        C      0.397400000000     0.345200000000     0.612700000000     0.0376764  
C        C      0.635800000000     0.394200000000     0.355500000000     0.0376764  
C        C      0.400500000000     0.382800000000     0.654300000000     0.0376764  
C        C      0.635100000000     0.354300000000     0.394500000000     0.0376764  
N        N      0.881600000000     0.765400000000     0.518100000000    -0.16277    
N        N      0.696800000000     0.710600000000     0.521300000000    -0.16277    
N        N      0.121500000000     0.005100000000     0.742800000000    -0.16277    
N        N      0.305900000000     0.005500000000     0.798200000000    -0.16277    
N        N      0.050000000000     0.868700000000     0.566400000000    -0.16277    
N        N      0.043300000000     0.929800000000     0.634600000000    -0.16277    
N        N      0.954900000000     0.869100000000     0.435400000000    -0.16277    
N        N      0.956800000000     0.934900000000     0.369300000000    -0.16277    
N        N      0.618400000000     0.234600000000     0.018100000000    -0.16277    
N        N      0.803200000000     0.289400000000     0.021300000000    -0.16277    
N        N      0.378500000000     0.994900000000     0.242800000000    -0.16277    
N        N      0.194100000000     0.994500000000     0.298200000000    -0.16277    
N        N      0.450000000000     0.131300000000     0.066400000000    -0.16277    
N        N      0.456700000000     0.070200000000     0.134600000000    -0.16277    
N        N      0.545100000000     0.130900000000     0.935400000000    -0.16277    
N        N      0.543200000000     0.065100000000     0.869300000000    -0.16277    
N        N      0.118400000000     0.265400000000     0.981900000000    -0.16277    
N        N      0.303200000000     0.210600000000     0.978700000000    -0.16277    
N        N      0.878500000000     0.505100000000     0.757200000000    -0.16277    
N        N      0.694100000000     0.505500000000     0.701800000000    -0.16277    
N        N      0.950000000000     0.368700000000     0.933600000000    -0.16277    
N        N      0.956700000000     0.429800000000     0.865400000000    -0.16277    
N        N      0.045100000000     0.369100000000     0.064600000000    -0.16277    
N        N      0.043200000000     0.434900000000     0.130700000000    -0.16277    
N        N      0.381600000000     0.734600000000     0.481900000000    -0.16277    
N        N      0.196800000000     0.789400000000     0.478700000000    -0.16277    
N        N      0.621500000000     0.494900000000     0.257200000000    -0.16277    
N        N      0.805900000000     0.494500000000     0.201800000000    -0.16277    
N        N      0.550000000000     0.631300000000     0.433600000000    -0.16277    
N        N      0.543300000000     0.570200000000     0.365400000000    -0.16277    
N        N      0.454900000000     0.630900000000     0.564600000000    -0.16277    
N        N      0.456800000000     0.565100000000     0.630700000000    -0.16277    
N        N      0.118400000000     0.234600000000     0.481900000000    -0.16277    
N        N      0.303200000000     0.289400000000     0.478700000000    -0.16277    
N        N      0.878500000000     0.994900000000     0.257200000000    -0.16277    
N        N      0.694100000000     0.994500000000     0.201800000000    -0.16277    
N        N      0.950000000000     0.131300000000     0.433600000000    -0.16277    
N        N      0.956700000000     0.070200000000     0.365400000000    -0.16277    
N        N      0.045100000000     0.130900000000     0.564600000000    -0.16277    
N        N      0.043200000000     0.065100000000     0.630700000000    -0.16277    
N        N      0.381600000000     0.765400000000     0.981900000000    -0.16277    
N        N      0.196800000000     0.710600000000     0.978700000000    -0.16277    
N        N      0.621500000000     0.005100000000     0.757200000000    -0.16277    
N        N      0.805900000000     0.005500000000     0.701800000000    -0.16277    
N        N      0.550000000000     0.868700000000     0.933600000000    -0.16277    
N        N      0.543300000000     0.929800000000     0.865400000000    -0.16277    
N        N      0.454900000000     0.869100000000     0.064600000000    -0.16277    
N        N      0.456800000000     0.934900000000     0.130700000000    -0.16277    
N        N      0.881600000000     0.734600000000     0.018100000000    -0.16277    
N        N      0.696800000000     0.789400000000     0.021300000000    -0.16277    
N        N      0.121500000000     0.494900000000     0.242800000000    -0.16277    
N        N      0.305900000000     0.494500000000     0.298200000000    -0.16277    
N        N      0.050000000000     0.631300000000     0.066400000000    -0.16277    
N        N      0.043300000000     0.570200000000     0.134600000000    -0.16277    
N        N      0.954900000000     0.630900000000     0.935400000000    -0.16277    
N        N      0.956800000000     0.565100000000     0.869300000000    -0.16277    
N        N      0.618400000000     0.265400000000     0.518100000000    -0.16277    
N        N      0.803200000000     0.210600000000     0.521300000000    -0.16277    
N        N      0.378500000000     0.505100000000     0.742800000000    -0.16277    
N        N      0.194100000000     0.505500000000     0.798200000000    -0.16277    
N        N      0.450000000000     0.368700000000     0.566400000000    -0.16277    
N        N      0.456700000000     0.429800000000     0.634600000000    -0.16277    
N        N      0.545100000000     0.369100000000     0.435400000000    -0.16277    
N        N      0.543200000000     0.434900000000     0.369300000000    -0.16277    


