data_VICDOC_original

_audit_creation_method RASPA-1.0
_audit_creation_date 2022-1-30
_audit_author_name 'Felipe Lopes de Oliveira <felipe.lopes.oliveira@ibm.com>'

_cell_length_a    7.1046
_cell_length_b    13.7152
_cell_length_c    22.951
_cell_angle_alpha 87.7027
_cell_angle_beta  81.0965
_cell_angle_gamma 74.9891
_cell_volume      2134.03

_symmetry_cell_setting          triclinic
_symmetry_space_group_name_Hall 'P 1'
_symmetry_space_group_name_H-M  'P 1'
_symmetry_Int_Tables_number     1

_symmetry_equiv_pos_as_xyz 'x,y,z'

loop_
_atom_site_label
_atom_site_type_symbol
_atom_site_fract_x
_atom_site_fract_y
_atom_site_fract_z
_atom_site_charge
Fe       Fe     0.630040000000     0.250000000000     0.239920000000     0.726858   
Fe       Fe     0.119960000000     0.250000000000     0.260080000000     0.726858   
Fe       Fe     0.369960000000     0.750000000000     0.760080000000     0.726858   
Fe       Fe     0.880040000000     0.750000000000     0.739920000000     0.726858   
H        H      0.245280000000     0.993220000000     0.076780000000     0.0338698  
H        H      0.178800000000     0.116760000000     0.139580000000     0.0338698  
H        H      0.735470000000     0.124380000000     0.102740000000     0.0338698  
H        H      0.723620000000     0.094240000000     0.011120000000     0.0338698  
H        H      0.795600000000     0.838320000000     0.250000000000     0.0338698  
H        H      0.725830000000     0.993500000000     0.250000000000     0.0338698  
H        H      0.177940000000     0.506780000000     0.076780000000     0.0338698  
H        H      0.181620000000     0.383240000000     0.139580000000     0.0338698  
H        H      0.661790000000     0.375620000000     0.102740000000     0.0338698  
H        H      0.765260000000     0.405760000000     0.011120000000     0.0338698  
H        H      0.454400000000     0.661680000000     0.250000000000     0.0338698  
H        H      0.524170000000     0.506500000000     0.250000000000     0.0338698  
H        H      0.761500000000     0.993220000000     0.423220000000     0.0338698  
H        H      0.704440000000     0.116760000000     0.360420000000     0.0338698  
H        H      0.140150000000     0.124380000000     0.397260000000     0.0338698  
H        H      0.182140000000     0.094240000000     0.488880000000     0.0338698  
H        H      0.366080000000     0.838320000000     0.250000000000     0.0338698  
H        H      0.280670000000     0.993500000000     0.250000000000     0.0338698  
H        H      0.315280000000     0.506780000000     0.423220000000     0.0338698  
H        H      0.435140000000     0.383240000000     0.360420000000     0.0338698  
H        H      0.962590000000     0.375620000000     0.397260000000     0.0338698  
H        H      0.828980000000     0.405760000000     0.488880000000     0.0338698  
H        H      0.883920000000     0.661680000000     0.250000000000     0.0338698  
H        H      0.969330000000     0.506500000000     0.250000000000     0.0338698  
H        H      0.754720000000     0.006780000000     0.923220000000     0.0338698  
H        H      0.821200000000     0.883240000000     0.860420000000     0.0338698  
H        H      0.264530000000     0.875620000000     0.897260000000     0.0338698  
H        H      0.276380000000     0.905760000000     0.988880000000     0.0338698  
H        H      0.204400000000     0.161680000000     0.750000000000     0.0338698  
H        H      0.274170000000     0.006500000000     0.750000000000     0.0338698  
H        H      0.822060000000     0.493220000000     0.923220000000     0.0338698  
H        H      0.818380000000     0.616760000000     0.860420000000     0.0338698  
H        H      0.338210000000     0.624380000000     0.897260000000     0.0338698  
H        H      0.234740000000     0.594240000000     0.988880000000     0.0338698  
H        H      0.545600000000     0.338320000000     0.750000000000     0.0338698  
H        H      0.475830000000     0.493500000000     0.750000000000     0.0338698  
H        H      0.238500000000     0.006780000000     0.576780000000     0.0338698  
H        H      0.295560000000     0.883240000000     0.639580000000     0.0338698  
H        H      0.859850000000     0.875620000000     0.602740000000     0.0338698  
H        H      0.817860000000     0.905760000000     0.511120000000     0.0338698  
H        H      0.633920000000     0.161680000000     0.750000000000     0.0338698  
H        H      0.719330000000     0.006500000000     0.750000000000     0.0338698  
H        H      0.684720000000     0.493220000000     0.576780000000     0.0338698  
H        H      0.564860000000     0.616760000000     0.639580000000     0.0338698  
H        H      0.037410000000     0.624380000000     0.602740000000     0.0338698  
H        H      0.171020000000     0.594240000000     0.511120000000     0.0338698  
H        H      0.116080000000     0.338320000000     0.750000000000     0.0338698  
H        H      0.030670000000     0.493500000000     0.750000000000     0.0338698  
C        C      0.348690000000     0.995980000000     0.045600000000    -0.00934059 
C        C      0.481530000000     0.051960000000     0.052200000000    -0.00934059 
C        C      0.462260000000     0.106140000000     0.106680000000    -0.00934059 
C        C      0.292610000000     0.134500000000     0.147880000000    -0.00934059 
C        C      0.610210000000     0.138860000000     0.126840000000    -0.00934059 
C        C      0.632840000000     0.055980000000     0.006600000000    -0.00934059 
C        C      0.929330000000     0.802460000000     0.250000000000    -0.00934059 
C        C      0.828690000000     0.026060000000     0.250000000000    -0.00934059 
C        C      0.105710000000     0.504020000000     0.045600000000    -0.00934059 
C        C      0.966270000000     0.448040000000     0.052200000000    -0.00934059 
C        C      0.931060000000     0.393860000000     0.106680000000    -0.00934059 
C        C      0.059510000000     0.365500000000     0.147880000000    -0.00934059 
C        C      0.762950000000     0.361140000000     0.126840000000    -0.00934059 
C        C      0.860560000000     0.444020000000     0.006600000000    -0.00934059 
C        C      0.320670000000     0.697540000000     0.250000000000    -0.00934059 
C        C      0.421310000000     0.473940000000     0.250000000000    -0.00934059 
C        C      0.655330000000     0.995980000000     0.454400000000    -0.00934059 
C        C      0.466510000000     0.051960000000     0.447800000000    -0.00934059 
C        C      0.431600000000     0.106140000000     0.393320000000    -0.00934059 
C        C      0.572890000000     0.134500000000     0.352120000000    -0.00934059 
C        C      0.250930000000     0.138860000000     0.373160000000    -0.00934059 
C        C      0.311180000000     0.055980000000     0.493400000000    -0.00934059 
C        C      0.268210000000     0.802460000000     0.250000000000    -0.00934059 
C        C      0.145250000000     0.026060000000     0.250000000000    -0.00934059 
C        C      0.390270000000     0.504020000000     0.454400000000    -0.00934059 
C        C      0.585690000000     0.448040000000     0.447800000000    -0.00934059 
C        C      0.675080000000     0.393860000000     0.393320000000    -0.00934059 
C        C      0.574990000000     0.365500000000     0.352120000000    -0.00934059 
C        C      0.875910000000     0.361140000000     0.373160000000    -0.00934059 
C        C      0.695420000000     0.444020000000     0.493400000000    -0.00934059 
C        C      0.981790000000     0.697540000000     0.250000000000    -0.00934059 
C        C      0.104750000000     0.473940000000     0.250000000000    -0.00934059 
C        C      0.651310000000     0.004020000000     0.954400000000    -0.00934059 
C        C      0.518470000000     0.948040000000     0.947800000000    -0.00934059 
C        C      0.537740000000     0.893860000000     0.893320000000    -0.00934059 
C        C      0.707390000000     0.865500000000     0.852120000000    -0.00934059 
C        C      0.389790000000     0.861140000000     0.873160000000    -0.00934059 
C        C      0.367160000000     0.944020000000     0.993400000000    -0.00934059 
C        C      0.070670000000     0.197540000000     0.750000000000    -0.00934059 
C        C      0.171310000000     0.973940000000     0.750000000000    -0.00934059 
C        C      0.894290000000     0.495980000000     0.954400000000    -0.00934059 
C        C      0.033730000000     0.551960000000     0.947800000000    -0.00934059 
C        C      0.068940000000     0.606140000000     0.893320000000    -0.00934059 
C        C      0.940490000000     0.634500000000     0.852120000000    -0.00934059 
C        C      0.237050000000     0.638860000000     0.873160000000    -0.00934059 
C        C      0.139440000000     0.555980000000     0.993400000000    -0.00934059 
C        C      0.679330000000     0.302460000000     0.750000000000    -0.00934059 
C        C      0.578690000000     0.526060000000     0.750000000000    -0.00934059 
C        C      0.344670000000     0.004020000000     0.545600000000    -0.00934059 
C        C      0.533490000000     0.948040000000     0.552200000000    -0.00934059 
C        C      0.568400000000     0.893860000000     0.606680000000    -0.00934059 
C        C      0.427110000000     0.865500000000     0.647880000000    -0.00934059 
C        C      0.749070000000     0.861140000000     0.626840000000    -0.00934059 
C        C      0.688820000000     0.944020000000     0.506600000000    -0.00934059 
C        C      0.731790000000     0.197540000000     0.750000000000    -0.00934059 
C        C      0.854750000000     0.973940000000     0.750000000000    -0.00934059 
C        C      0.609730000000     0.495980000000     0.545600000000    -0.00934059 
C        C      0.414310000000     0.551960000000     0.552200000000    -0.00934059 
C        C      0.324920000000     0.606140000000     0.606680000000    -0.00934059 
C        C      0.425010000000     0.634500000000     0.647880000000    -0.00934059 
C        C      0.124090000000     0.638860000000     0.626840000000    -0.00934059 
C        C      0.304580000000     0.555980000000     0.506600000000    -0.00934059 
C        C      0.018210000000     0.302460000000     0.750000000000    -0.00934059 
C        C      0.895250000000     0.526060000000     0.750000000000    -0.00934059 
C        C      0.072540000000     0.854920000000     0.250000000000    -0.00934059 
C        C      0.017810000000     0.964380000000     0.250000000000    -0.00934059 
C        C      0.177460000000     0.645080000000     0.250000000000    -0.00934059 
C        C      0.232190000000     0.535620000000     0.250000000000    -0.00934059 
C        C      0.927460000000     0.145080000000     0.750000000000    -0.00934059 
C        C      0.982190000000     0.035620000000     0.750000000000    -0.00934059 
C        C      0.822540000000     0.354920000000     0.750000000000    -0.00934059 
C        C      0.767810000000     0.464380000000     0.750000000000    -0.00934059 
N        N      0.335690000000     0.184760000000     0.193520000000    -0.160861   
N        N      0.531980000000     0.187440000000     0.180520000000    -0.160861   
N        N      0.839250000000     0.125860000000     0.250000000000    -0.160861   
N        N      0.970790000000     0.315240000000     0.193520000000    -0.160861   
N        N      0.787500000000     0.312560000000     0.180520000000    -0.160861   
N        N      0.410750000000     0.374140000000     0.250000000000    -0.160861   
N        N      0.479550000000     0.184760000000     0.306480000000    -0.160861   
N        N      0.280580000000     0.187440000000     0.319480000000    -0.160861   
N        N      0.034890000000     0.125860000000     0.250000000000    -0.160861   
N        N      0.713970000000     0.315240000000     0.306480000000    -0.160861   
N        N      0.899940000000     0.312560000000     0.319480000000    -0.160861   
N        N      0.215110000000     0.374140000000     0.250000000000    -0.160861   
N        N      0.664310000000     0.815240000000     0.806480000000    -0.160861   
N        N      0.468020000000     0.812560000000     0.819480000000    -0.160861   
N        N      0.160750000000     0.874140000000     0.750000000000    -0.160861   
N        N      0.029210000000     0.684760000000     0.806480000000    -0.160861   
N        N      0.212500000000     0.687440000000     0.819480000000    -0.160861   
N        N      0.589250000000     0.625860000000     0.750000000000    -0.160861   
N        N      0.520450000000     0.815240000000     0.693520000000    -0.160861   
N        N      0.719420000000     0.812560000000     0.680520000000    -0.160861   
N        N      0.965110000000     0.874140000000     0.750000000000    -0.160861   
N        N      0.286030000000     0.684760000000     0.693520000000    -0.160861   
N        N      0.100060000000     0.687440000000     0.680520000000    -0.160861   
N        N      0.784890000000     0.625860000000     0.750000000000    -0.160861   


