data_VICYUD_original

_audit_creation_method RASPA-1.0
_audit_creation_date 2022-1-30
_audit_author_name 'Felipe Lopes de Oliveira <felipe.lopes.oliveira@ibm.com>'

_cell_length_a    12.997
_cell_length_b    13.8359
_cell_length_c    21.9242
_cell_angle_alpha 94.9258
_cell_angle_beta  90
_cell_angle_gamma 90
_cell_volume      3927.96

_symmetry_cell_setting          triclinic
_symmetry_space_group_name_Hall 'P 1'
_symmetry_space_group_name_H-M  'P 1'
_symmetry_Int_Tables_number     1

_symmetry_equiv_pos_as_xyz 'x,y,z'

loop_
_atom_site_label
_atom_site_type_symbol
_atom_site_fract_x
_atom_site_fract_y
_atom_site_fract_z
_atom_site_charge
Zn       Zn     0.276670000000     0.426790000000     0.161270000000     0.460092   
Zn       Zn     0.606400000000     0.005220000000     0.228250000000     0.460092   
Zn       Zn     0.776670000000     0.073210000000     0.338730000000     0.460092   
Zn       Zn     0.106400000000     0.494780000000     0.271750000000     0.460092   
Zn       Zn     0.723330000000     0.573210000000     0.838730000000     0.460092   
Zn       Zn     0.393600000000     0.994780000000     0.771750000000     0.460092   
Zn       Zn     0.223330000000     0.926790000000     0.661270000000     0.460092   
Zn       Zn     0.893600000000     0.505220000000     0.728250000000     0.460092   
H        H      0.340800000000     0.771700000000     0.250500000000     0.0636095  
H        H      0.363700000000     0.894300000000     0.095300000000     0.0636095  
H        H      0.161400000000     0.666400000000     0.113700000000     0.0636095  
H        H      0.999400000000     0.685200000000     0.945200000000     0.0636095  
H        H      0.071800000000     0.767400000000     0.778000000000     0.0636095  
H        H      0.244200000000     0.859600000000     0.921700000000     0.0636095  
H        H      0.176900000000     0.427000000000     0.028800000000     0.0636095  
H        H      0.199300000000     0.501100000000     0.942800000000     0.0636095  
H        H      0.327300000000     0.581400000000     0.924800000000     0.0636095  
H        H      0.504000000000     0.686300000000     0.983700000000     0.0636095  
H        H      0.595500000000     0.715700000000     0.068100000000     0.0636095  
H        H      0.625800000000     0.699800000000     0.175600000000     0.0636095  
H        H      0.580300000000     0.629300000000     0.262200000000     0.0636095  
H        H      0.449500000000     0.509600000000     0.257400000000     0.0636095  
H        H      0.840800000000     0.728300000000     0.249500000000     0.0636095  
H        H      0.863700000000     0.605700000000     0.404700000000     0.0636095  
H        H      0.661400000000     0.833600000000     0.386300000000     0.0636095  
H        H      0.499400000000     0.814800000000     0.554800000000     0.0636095  
H        H      0.571800000000     0.732600000000     0.722000000000     0.0636095  
H        H      0.744200000000     0.640400000000     0.578300000000     0.0636095  
H        H      0.676900000000     0.073000000000     0.471200000000     0.0636095  
H        H      0.699300000000     0.998900000000     0.557200000000     0.0636095  
H        H      0.827300000000     0.918600000000     0.575200000000     0.0636095  
H        H      0.004000000000     0.813700000000     0.516300000000     0.0636095  
H        H      0.095500000000     0.784300000000     0.431900000000     0.0636095  
H        H      0.125800000000     0.800200000000     0.324400000000     0.0636095  
H        H      0.080300000000     0.870700000000     0.237800000000     0.0636095  
H        H      0.949500000000     0.990400000000     0.242600000000     0.0636095  
H        H      0.659200000000     0.228300000000     0.749500000000     0.0636095  
H        H      0.636300000000     0.105700000000     0.904700000000     0.0636095  
H        H      0.838600000000     0.333600000000     0.886300000000     0.0636095  
H        H      0.000600000000     0.314800000000     0.054800000000     0.0636095  
H        H      0.928200000000     0.232600000000     0.222000000000     0.0636095  
H        H      0.755800000000     0.140400000000     0.078300000000     0.0636095  
H        H      0.823100000000     0.573000000000     0.971200000000     0.0636095  
H        H      0.800700000000     0.498900000000     0.057200000000     0.0636095  
H        H      0.672700000000     0.418600000000     0.075200000000     0.0636095  
H        H      0.496000000000     0.313700000000     0.016300000000     0.0636095  
H        H      0.404500000000     0.284300000000     0.931900000000     0.0636095  
H        H      0.374200000000     0.300200000000     0.824400000000     0.0636095  
H        H      0.419700000000     0.370700000000     0.737800000000     0.0636095  
H        H      0.550500000000     0.490400000000     0.742600000000     0.0636095  
H        H      0.159200000000     0.271700000000     0.750500000000     0.0636095  
H        H      0.136300000000     0.394300000000     0.595300000000     0.0636095  
H        H      0.338600000000     0.166400000000     0.613700000000     0.0636095  
H        H      0.500600000000     0.185200000000     0.445200000000     0.0636095  
H        H      0.428200000000     0.267400000000     0.278000000000     0.0636095  
H        H      0.255800000000     0.359600000000     0.421700000000     0.0636095  
H        H      0.323100000000     0.927000000000     0.528800000000     0.0636095  
H        H      0.300700000000     0.001100000000     0.442800000000     0.0636095  
H        H      0.172700000000     0.081400000000     0.424800000000     0.0636095  
H        H      0.996000000000     0.186300000000     0.483700000000     0.0636095  
H        H      0.904500000000     0.215700000000     0.568100000000     0.0636095  
H        H      0.874200000000     0.199800000000     0.675600000000     0.0636095  
H        H      0.919700000000     0.129300000000     0.762200000000     0.0636095  
H        H      0.050500000000     0.009600000000     0.757400000000     0.0636095  
C        C      0.215500000000     0.632900000000     0.225100000000     0.0377209  
C        C      0.246700000000     0.704400000000     0.187600000000     0.0377209  
C        C      0.320100000000     0.773400000000     0.210000000000     0.0377209  
C        C      0.363500000000     0.842600000000     0.177600000000     0.0377209  
C        C      0.332400000000     0.849900000000     0.118900000000     0.0377209  
C        C      0.250600000000     0.788700000000     0.093700000000     0.0377209  
C        C      0.210400000000     0.710300000000     0.130200000000     0.0377209  
C        C      0.127400000000     0.766400000000     0.942900000000     0.0377209  
C        C      0.042200000000     0.717200000000     0.919500000000     0.0377209  
C        C      0.020500000000     0.715600000000     0.857900000000     0.0377209  
C        C      0.084500000000     0.769900000000     0.819800000000     0.0377209  
C        C      0.165100000000     0.826400000000     0.844700000000     0.0377209  
C        C      0.188700000000     0.824100000000     0.905000000000     0.0377209  
C        C      0.447700000000     0.901200000000     0.200200000000     0.0377209  
C        C      0.228000000000     0.882500000000     0.802300000000     0.0377209  
C        C      0.938300000000     0.654500000000     0.831000000000     0.0377209  
C        C      0.232100000000     0.469600000000     0.027200000000     0.0377209  
C        C      0.248300000000     0.512000000000     0.973500000000     0.0377209  
C        C      0.317600000000     0.560000000000     0.963500000000     0.0377209  
C        C      0.388500000000     0.585800000000     0.012300000000     0.0377209  
C        C      0.485000000000     0.655400000000     0.018000000000     0.0377209  
C        C      0.540600000000     0.672300000000     0.068300000000     0.0377209  
C        C      0.519800000000     0.628600000000     0.121100000000     0.0377209  
C        C      0.572800000000     0.654700000000     0.174700000000     0.0377209  
C        C      0.546300000000     0.612400000000     0.225400000000     0.0377209  
C        C      0.463900000000     0.541000000000     0.222500000000     0.0377209  
C        C      0.432000000000     0.563100000000     0.122000000000     0.0377209  
C        C      0.369400000000     0.542500000000     0.069100000000     0.0377209  
C        C      0.715500000000     0.867100000000     0.274900000000     0.0377209  
C        C      0.746700000000     0.795600000000     0.312400000000     0.0377209  
C        C      0.820100000000     0.726600000000     0.290000000000     0.0377209  
C        C      0.863500000000     0.657400000000     0.322400000000     0.0377209  
C        C      0.832400000000     0.650100000000     0.381100000000     0.0377209  
C        C      0.750600000000     0.711300000000     0.406300000000     0.0377209  
C        C      0.710400000000     0.789700000000     0.369800000000     0.0377209  
C        C      0.627400000000     0.733600000000     0.557100000000     0.0377209  
C        C      0.542200000000     0.782800000000     0.580500000000     0.0377209  
C        C      0.520500000000     0.784400000000     0.642100000000     0.0377209  
C        C      0.584500000000     0.730100000000     0.680200000000     0.0377209  
C        C      0.665100000000     0.673600000000     0.655300000000     0.0377209  
C        C      0.688700000000     0.675900000000     0.595000000000     0.0377209  
C        C      0.947700000000     0.598800000000     0.299800000000     0.0377209  
C        C      0.728000000000     0.617500000000     0.697700000000     0.0377209  
C        C      0.438300000000     0.845500000000     0.669000000000     0.0377209  
C        C      0.732100000000     0.030400000000     0.472800000000     0.0377209  
C        C      0.748300000000     0.988000000000     0.526500000000     0.0377209  
C        C      0.817600000000     0.940000000000     0.536500000000     0.0377209  
C        C      0.888500000000     0.914200000000     0.487700000000     0.0377209  
C        C      0.985000000000     0.844600000000     0.482000000000     0.0377209  
C        C      0.040600000000     0.827700000000     0.431700000000     0.0377209  
C        C      0.019800000000     0.871400000000     0.378900000000     0.0377209  
C        C      0.072800000000     0.845300000000     0.325300000000     0.0377209  
C        C      0.046300000000     0.887600000000     0.274600000000     0.0377209  
C        C      0.963900000000     0.959000000000     0.277500000000     0.0377209  
C        C      0.932000000000     0.936900000000     0.378000000000     0.0377209  
C        C      0.869400000000     0.957500000000     0.430900000000     0.0377209  
C        C      0.784500000000     0.367100000000     0.774900000000     0.0377209  
C        C      0.753300000000     0.295600000000     0.812400000000     0.0377209  
C        C      0.679900000000     0.226600000000     0.790000000000     0.0377209  
C        C      0.636500000000     0.157400000000     0.822400000000     0.0377209  
C        C      0.667600000000     0.150100000000     0.881100000000     0.0377209  
C        C      0.749400000000     0.211300000000     0.906300000000     0.0377209  
C        C      0.789600000000     0.289700000000     0.869800000000     0.0377209  
C        C      0.872600000000     0.233600000000     0.057100000000     0.0377209  
C        C      0.957800000000     0.282800000000     0.080500000000     0.0377209  
C        C      0.979500000000     0.284400000000     0.142100000000     0.0377209  
C        C      0.915500000000     0.230100000000     0.180200000000     0.0377209  
C        C      0.834900000000     0.173600000000     0.155300000000     0.0377209  
C        C      0.811300000000     0.175900000000     0.095000000000     0.0377209  
C        C      0.552300000000     0.098800000000     0.799800000000     0.0377209  
C        C      0.772000000000     0.117500000000     0.197700000000     0.0377209  
C        C      0.061700000000     0.345500000000     0.169000000000     0.0377209  
C        C      0.767900000000     0.530400000000     0.972800000000     0.0377209  
C        C      0.751700000000     0.488000000000     0.026500000000     0.0377209  
C        C      0.682400000000     0.440000000000     0.036500000000     0.0377209  
C        C      0.611500000000     0.414200000000     0.987700000000     0.0377209  
C        C      0.515000000000     0.344600000000     0.982000000000     0.0377209  
C        C      0.459400000000     0.327700000000     0.931700000000     0.0377209  
C        C      0.480200000000     0.371400000000     0.878900000000     0.0377209  
C        C      0.427200000000     0.345300000000     0.825300000000     0.0377209  
C        C      0.453700000000     0.387600000000     0.774600000000     0.0377209  
C        C      0.536100000000     0.459000000000     0.777500000000     0.0377209  
C        C      0.568000000000     0.436900000000     0.878000000000     0.0377209  
C        C      0.630600000000     0.457500000000     0.930900000000     0.0377209  
C        C      0.284500000000     0.132900000000     0.725100000000     0.0377209  
C        C      0.253300000000     0.204400000000     0.687600000000     0.0377209  
C        C      0.179900000000     0.273400000000     0.710000000000     0.0377209  
C        C      0.136500000000     0.342600000000     0.677600000000     0.0377209  
C        C      0.167600000000     0.349900000000     0.618900000000     0.0377209  
C        C      0.249400000000     0.288700000000     0.593700000000     0.0377209  
C        C      0.289600000000     0.210300000000     0.630200000000     0.0377209  
C        C      0.372600000000     0.266400000000     0.442900000000     0.0377209  
C        C      0.457800000000     0.217200000000     0.419500000000     0.0377209  
C        C      0.479500000000     0.215600000000     0.357900000000     0.0377209  
C        C      0.415500000000     0.269900000000     0.319800000000     0.0377209  
C        C      0.334900000000     0.326400000000     0.344700000000     0.0377209  
C        C      0.311300000000     0.324100000000     0.405000000000     0.0377209  
C        C      0.052300000000     0.401200000000     0.700200000000     0.0377209  
C        C      0.272000000000     0.382500000000     0.302300000000     0.0377209  
C        C      0.561700000000     0.154500000000     0.331000000000     0.0377209  
C        C      0.267900000000     0.969600000000     0.527200000000     0.0377209  
C        C      0.251700000000     0.012000000000     0.473500000000     0.0377209  
C        C      0.182400000000     0.060000000000     0.463500000000     0.0377209  
C        C      0.111500000000     0.085800000000     0.512300000000     0.0377209  
C        C      0.015000000000     0.155400000000     0.518000000000     0.0377209  
C        C      0.959400000000     0.172300000000     0.568300000000     0.0377209  
C        C      0.980200000000     0.128600000000     0.621100000000     0.0377209  
C        C      0.927200000000     0.154700000000     0.674700000000     0.0377209  
C        C      0.953700000000     0.112400000000     0.725400000000     0.0377209  
C        C      0.036100000000     0.041000000000     0.722500000000     0.0377209  
C        C      0.068000000000     0.063100000000     0.622000000000     0.0377209  
C        C      0.130600000000     0.042500000000     0.569100000000     0.0377209  
N        N      0.287600000000     0.484800000000     0.074200000000    -0.109099   
N        N      0.409300000000     0.519000000000     0.173300000000    -0.109099   
N        N      0.226200000000     0.802400000000     0.029600000000    -0.109099   
N        N      0.153500000000     0.759900000000     0.008600000000    -0.109099   
N        N      0.787600000000     0.015200000000     0.425800000000    -0.109099   
N        N      0.909300000000     0.981000000000     0.326700000000    -0.109099   
N        N      0.726200000000     0.697600000000     0.470400000000    -0.109099   
N        N      0.653500000000     0.740100000000     0.491400000000    -0.109099   
N        N      0.712400000000     0.515200000000     0.925800000000    -0.109099   
N        N      0.590700000000     0.481000000000     0.826700000000    -0.109099   
N        N      0.773800000000     0.197600000000     0.970400000000    -0.109099   
N        N      0.846500000000     0.240100000000     0.991400000000    -0.109099   
N        N      0.212400000000     0.984800000000     0.574200000000    -0.109099   
N        N      0.090700000000     0.019000000000     0.673300000000    -0.109099   
N        N      0.273800000000     0.302400000000     0.529600000000    -0.109099   
N        N      0.346500000000     0.259900000000     0.508600000000    -0.109099   
O        O      0.180600000000     0.553500000000     0.200100000000    -0.270056   
O        O      0.209300000000     0.645500000000     0.280300000000    -0.270056   
O        O      0.470800000000     0.896200000000     0.256900000000    -0.270056   
O        O      0.491300000000     0.952400000000     0.171900000000    -0.270056   
O        O      0.302400000000     0.930100000000     0.827200000000    -0.270056   
O        O      0.201500000000     0.881700000000     0.748600000000    -0.270056   
O        O      0.862000000000     0.638700000000     0.861800000000    -0.270056   
O        O      0.952000000000     0.622200000000     0.775800000000    -0.270056   
O        O      0.072600000000     0.710900000000     0.035800000000    -0.270056   
O        O      0.680600000000     0.946500000000     0.299900000000    -0.270056   
O        O      0.709300000000     0.854500000000     0.219700000000    -0.270056   
O        O      0.970800000000     0.603800000000     0.243100000000    -0.270056   
O        O      0.991300000000     0.547600000000     0.328100000000    -0.270056   
O        O      0.802400000000     0.569900000000     0.672800000000    -0.270056   
O        O      0.701500000000     0.618300000000     0.751400000000    -0.270056   
O        O      0.362000000000     0.861300000000     0.638200000000    -0.270056   
O        O      0.452000000000     0.877800000000     0.724200000000    -0.270056   
O        O      0.572600000000     0.789100000000     0.464200000000    -0.270056   
O        O      0.819400000000     0.446500000000     0.799900000000    -0.270056   
O        O      0.790700000000     0.354500000000     0.719700000000    -0.270056   
O        O      0.529200000000     0.103800000000     0.743100000000    -0.270056   
O        O      0.508700000000     0.047600000000     0.828100000000    -0.270056   
O        O      0.697600000000     0.069900000000     0.172800000000    -0.270056   
O        O      0.798500000000     0.118300000000     0.251400000000    -0.270056   
O        O      0.138000000000     0.361300000000     0.138200000000    -0.270056   
O        O      0.048000000000     0.377800000000     0.224200000000    -0.270056   
O        O      0.927400000000     0.289100000000     0.964200000000    -0.270056   
O        O      0.319400000000     0.053500000000     0.700100000000    -0.270056   
O        O      0.290700000000     0.145500000000     0.780300000000    -0.270056   
O        O      0.029200000000     0.396200000000     0.756900000000    -0.270056   
O        O      0.008700000000     0.452400000000     0.671900000000    -0.270056   
O        O      0.197600000000     0.430100000000     0.327200000000    -0.270056   
O        O      0.298500000000     0.381700000000     0.248600000000    -0.270056   
O        O      0.638000000000     0.138700000000     0.361800000000    -0.270056   
O        O      0.548000000000     0.122200000000     0.275800000000    -0.270056   
O        O      0.427400000000     0.210900000000     0.535800000000    -0.270056   


