data_VIZRIH_original

_audit_creation_method RASPA-1.0
_audit_creation_date 2022-1-30
_audit_author_name 'Felipe Lopes de Oliveira <felipe.lopes.oliveira@ibm.com>'

_cell_length_a    9.851
_cell_length_b    16.577
_cell_length_c    30.671
_cell_angle_alpha 90
_cell_angle_beta  90
_cell_angle_gamma 90
_cell_volume      5008.58

_symmetry_cell_setting          triclinic
_symmetry_space_group_name_Hall 'P 1'
_symmetry_space_group_name_H-M  'P 1'
_symmetry_Int_Tables_number     1

_symmetry_equiv_pos_as_xyz 'x,y,z'

loop_
_atom_site_label
_atom_site_type_symbol
_atom_site_fract_x
_atom_site_fract_y
_atom_site_fract_z
_atom_site_charge
Zn       Zn     0.160330000000     0.892240000000     0.650340000000     0.389316   
Zn       Zn     0.366590000000     0.858190000000     0.748700000000     0.389316   
Zn       Zn     0.660330000000     0.607760000000     0.849660000000     0.389316   
Zn       Zn     0.866590000000     0.641810000000     0.751300000000     0.389316   
Zn       Zn     0.339670000000     0.892240000000     0.349660000000     0.389316   
Zn       Zn     0.133410000000     0.858190000000     0.251300000000     0.389316   
Zn       Zn     0.839670000000     0.607760000000     0.150340000000     0.389316   
Zn       Zn     0.633410000000     0.641810000000     0.248700000000     0.389316   
Zn       Zn     0.839670000000     0.107760000000     0.349660000000     0.389316   
Zn       Zn     0.633410000000     0.141810000000     0.251300000000     0.389316   
Zn       Zn     0.339670000000     0.392240000000     0.150340000000     0.389316   
Zn       Zn     0.133410000000     0.358190000000     0.248700000000     0.389316   
Zn       Zn     0.660330000000     0.107760000000     0.650340000000     0.389316   
Zn       Zn     0.866590000000     0.141810000000     0.748700000000     0.389316   
Zn       Zn     0.160330000000     0.392240000000     0.849660000000     0.389316   
Zn       Zn     0.366590000000     0.358190000000     0.751300000000     0.389316   
H        H      0.276000000000     0.029700000000     0.596400000000     0.0929125  
H        H      0.394800000000     0.085300000000     0.597400000000     0.0929125  
H        H      0.463000000000     0.739800000000     0.862000000000     0.0929125  
H        H      0.385900000000     0.798100000000     0.834600000000     0.0929125  
H        H      0.401300000000     0.438000000000     0.985500000000     0.0929125  
H        H      0.494400000000     0.389500000000     0.922200000000     0.0929125  
H        H      0.587400000000     0.183300000000     0.982900000000     0.0929125  
H        H      0.487000000000     0.232400000000     0.045500000000     0.0929125  
H        H      0.379800000000     0.243200000000     0.854600000000     0.0929125  
H        H      0.267200000000     0.146900000000     0.814500000000     0.0929125  
H        H      0.653700000000     0.079900000000     0.889700000000     0.0929125  
H        H      0.536200000000     0.983200000000     0.850800000000     0.0929125  
H        H      0.595200000000     0.969700000000     0.716100000000     0.0929125  
H        H      0.642200000000     0.765000000000     0.712500000000     0.0929125  
H        H      0.776000000000     0.470300000000     0.903600000000     0.0929125  
H        H      0.894800000000     0.414700000000     0.902600000000     0.0929125  
H        H      0.963000000000     0.760200000000     0.638000000000     0.0929125  
H        H      0.885900000000     0.701900000000     0.665400000000     0.0929125  
H        H      0.901300000000     0.062000000000     0.514500000000     0.0929125  
H        H      0.994400000000     0.110500000000     0.577800000000     0.0929125  
H        H      0.087400000000     0.316700000000     0.517100000000     0.0929125  
H        H      0.987000000000     0.267600000000     0.454500000000     0.0929125  
H        H      0.879800000000     0.256800000000     0.645400000000     0.0929125  
H        H      0.767200000000     0.353100000000     0.685500000000     0.0929125  
H        H      0.153700000000     0.420100000000     0.610300000000     0.0929125  
H        H      0.036200000000     0.516800000000     0.649200000000     0.0929125  
H        H      0.095200000000     0.530300000000     0.783900000000     0.0929125  
H        H      0.142200000000     0.735000000000     0.787500000000     0.0929125  
H        H      0.224000000000     0.029700000000     0.403600000000     0.0929125  
H        H      0.105200000000     0.085300000000     0.402600000000     0.0929125  
H        H      0.037000000000     0.739800000000     0.138000000000     0.0929125  
H        H      0.114100000000     0.798100000000     0.165400000000     0.0929125  
H        H      0.098700000000     0.438000000000     0.014500000000     0.0929125  
H        H      0.005600000000     0.389500000000     0.077800000000     0.0929125  
H        H      0.912600000000     0.183300000000     0.017100000000     0.0929125  
H        H      0.013000000000     0.232400000000     0.954500000000     0.0929125  
H        H      0.120200000000     0.243200000000     0.145400000000     0.0929125  
H        H      0.232800000000     0.146900000000     0.185500000000     0.0929125  
H        H      0.846300000000     0.079900000000     0.110300000000     0.0929125  
H        H      0.963800000000     0.983200000000     0.149200000000     0.0929125  
H        H      0.904800000000     0.969700000000     0.283900000000     0.0929125  
H        H      0.857800000000     0.765000000000     0.287500000000     0.0929125  
H        H      0.724000000000     0.470300000000     0.096400000000     0.0929125  
H        H      0.605200000000     0.414700000000     0.097400000000     0.0929125  
H        H      0.537000000000     0.760200000000     0.362000000000     0.0929125  
H        H      0.614100000000     0.701900000000     0.334600000000     0.0929125  
H        H      0.598700000000     0.062000000000     0.485500000000     0.0929125  
H        H      0.505600000000     0.110500000000     0.422200000000     0.0929125  
H        H      0.412600000000     0.316700000000     0.482900000000     0.0929125  
H        H      0.513000000000     0.267600000000     0.545500000000     0.0929125  
H        H      0.620200000000     0.256800000000     0.354600000000     0.0929125  
H        H      0.732800000000     0.353100000000     0.314500000000     0.0929125  
H        H      0.346300000000     0.420100000000     0.389700000000     0.0929125  
H        H      0.463800000000     0.516800000000     0.350800000000     0.0929125  
H        H      0.404800000000     0.530300000000     0.216100000000     0.0929125  
H        H      0.357800000000     0.735000000000     0.212500000000     0.0929125  
H        H      0.724000000000     0.970300000000     0.403600000000     0.0929125  
H        H      0.605200000000     0.914700000000     0.402600000000     0.0929125  
H        H      0.537000000000     0.260200000000     0.138000000000     0.0929125  
H        H      0.614100000000     0.201900000000     0.165400000000     0.0929125  
H        H      0.598700000000     0.562000000000     0.014500000000     0.0929125  
H        H      0.505600000000     0.610500000000     0.077800000000     0.0929125  
H        H      0.412600000000     0.816700000000     0.017100000000     0.0929125  
H        H      0.513000000000     0.767600000000     0.954500000000     0.0929125  
H        H      0.620200000000     0.756800000000     0.145400000000     0.0929125  
H        H      0.732800000000     0.853100000000     0.185500000000     0.0929125  
H        H      0.346300000000     0.920100000000     0.110300000000     0.0929125  
H        H      0.463800000000     0.016800000000     0.149200000000     0.0929125  
H        H      0.404800000000     0.030300000000     0.283900000000     0.0929125  
H        H      0.357800000000     0.235000000000     0.287500000000     0.0929125  
H        H      0.224000000000     0.529700000000     0.096400000000     0.0929125  
H        H      0.105200000000     0.585300000000     0.097400000000     0.0929125  
H        H      0.037000000000     0.239800000000     0.362000000000     0.0929125  
H        H      0.114100000000     0.298100000000     0.334600000000     0.0929125  
H        H      0.098700000000     0.938000000000     0.485500000000     0.0929125  
H        H      0.005600000000     0.889500000000     0.422200000000     0.0929125  
H        H      0.912600000000     0.683300000000     0.482900000000     0.0929125  
H        H      0.013000000000     0.732400000000     0.545500000000     0.0929125  
H        H      0.120200000000     0.743200000000     0.354600000000     0.0929125  
H        H      0.232800000000     0.646900000000     0.314500000000     0.0929125  
H        H      0.846300000000     0.579900000000     0.389700000000     0.0929125  
H        H      0.963800000000     0.483200000000     0.350800000000     0.0929125  
H        H      0.904800000000     0.469700000000     0.216100000000     0.0929125  
H        H      0.857800000000     0.265000000000     0.212500000000     0.0929125  
H        H      0.776000000000     0.970300000000     0.596400000000     0.0929125  
H        H      0.894800000000     0.914700000000     0.597400000000     0.0929125  
H        H      0.963000000000     0.260200000000     0.862000000000     0.0929125  
H        H      0.885900000000     0.201900000000     0.834600000000     0.0929125  
H        H      0.901300000000     0.562000000000     0.985500000000     0.0929125  
H        H      0.994400000000     0.610500000000     0.922200000000     0.0929125  
H        H      0.087400000000     0.816700000000     0.982900000000     0.0929125  
H        H      0.987000000000     0.767600000000     0.045500000000     0.0929125  
H        H      0.879800000000     0.756800000000     0.854600000000     0.0929125  
H        H      0.767200000000     0.853100000000     0.814500000000     0.0929125  
H        H      0.153700000000     0.920100000000     0.889700000000     0.0929125  
H        H      0.036200000000     0.016800000000     0.850800000000     0.0929125  
H        H      0.095200000000     0.030300000000     0.716100000000     0.0929125  
H        H      0.142200000000     0.235000000000     0.712500000000     0.0929125  
H        H      0.276000000000     0.529700000000     0.903600000000     0.0929125  
H        H      0.394800000000     0.585300000000     0.902600000000     0.0929125  
H        H      0.463000000000     0.239800000000     0.638000000000     0.0929125  
H        H      0.385900000000     0.298100000000     0.665400000000     0.0929125  
H        H      0.401300000000     0.938000000000     0.514500000000     0.0929125  
H        H      0.494400000000     0.889500000000     0.577800000000     0.0929125  
H        H      0.587400000000     0.683300000000     0.517100000000     0.0929125  
H        H      0.487000000000     0.732400000000     0.454500000000     0.0929125  
H        H      0.379800000000     0.743200000000     0.645400000000     0.0929125  
H        H      0.267200000000     0.646900000000     0.685500000000     0.0929125  
H        H      0.653700000000     0.579900000000     0.610300000000     0.0929125  
H        H      0.536200000000     0.483200000000     0.649200000000     0.0929125  
H        H      0.595200000000     0.469700000000     0.783900000000     0.0929125  
H        H      0.642200000000     0.265000000000     0.787500000000     0.0929125  
C        C      0.384100000000     0.377100000000     0.064110000000     0.0535227  
C        C      0.439900000000     0.341600000000     0.022070000000     0.0535227  
C        C      0.439500000000     0.386700000000     0.985040000000     0.0535227  
C        C      0.494300000000     0.357900000000     0.947260000000     0.0535227  
C        C      0.548700000000     0.282200000000     0.946580000000     0.0535227  
C        C      0.549100000000     0.234500000000     0.983370000000     0.0535227  
C        C      0.491400000000     0.264600000000     0.020750000000     0.0535227  
C        C      0.529000000000     0.171200000000     0.875080000000     0.0535227  
C        C      0.413200000000     0.190800000000     0.853300000000     0.0535227  
C        C      0.345800000000     0.133100000000     0.829500000000     0.0535227  
C        C      0.392700000000     0.056500000000     0.827810000000     0.0535227  
C        C      0.575600000000     0.093800000000     0.874400000000     0.0535227  
C        C      0.505800000000     0.036300000000     0.850900000000     0.0535227  
C        C      0.327900000000     0.996100000000     0.797430000000     0.0535227  
C        C      0.400000000000     0.006000000000     0.643110000000     0.0535227  
C        C      0.524500000000     0.971300000000     0.696060000000     0.0535227  
C        C      0.623200000000     0.751400000000     0.741320000000     0.0535227  
C        C      0.534500000000     0.748400000000     0.803660000000     0.0535227  
C        C      0.884100000000     0.122900000000     0.435890000000     0.0535227  
C        C      0.939900000000     0.158400000000     0.477930000000     0.0535227  
C        C      0.939500000000     0.113300000000     0.514960000000     0.0535227  
C        C      0.994300000000     0.142100000000     0.552740000000     0.0535227  
C        C      0.048700000000     0.217800000000     0.553420000000     0.0535227  
C        C      0.049100000000     0.265500000000     0.516630000000     0.0535227  
C        C      0.991400000000     0.235400000000     0.479250000000     0.0535227  
C        C      0.029000000000     0.328800000000     0.624920000000     0.0535227  
C        C      0.913200000000     0.309200000000     0.646700000000     0.0535227  
C        C      0.845800000000     0.366900000000     0.670500000000     0.0535227  
C        C      0.892700000000     0.443500000000     0.672190000000     0.0535227  
C        C      0.075600000000     0.406200000000     0.625600000000     0.0535227  
C        C      0.005800000000     0.463700000000     0.649100000000     0.0535227  
C        C      0.827900000000     0.503900000000     0.702570000000     0.0535227  
C        C      0.900000000000     0.494000000000     0.856890000000     0.0535227  
C        C      0.024500000000     0.528700000000     0.803940000000     0.0535227  
C        C      0.123200000000     0.748600000000     0.758680000000     0.0535227  
C        C      0.034500000000     0.751600000000     0.696340000000     0.0535227  
C        C      0.115900000000     0.377100000000     0.935890000000     0.0535227  
C        C      0.060100000000     0.341600000000     0.977930000000     0.0535227  
C        C      0.060500000000     0.386700000000     0.014960000000     0.0535227  
C        C      0.005700000000     0.357900000000     0.052740000000     0.0535227  
C        C      0.951300000000     0.282200000000     0.053420000000     0.0535227  
C        C      0.950900000000     0.234500000000     0.016630000000     0.0535227  
C        C      0.008600000000     0.264600000000     0.979250000000     0.0535227  
C        C      0.971000000000     0.171200000000     0.124920000000     0.0535227  
C        C      0.086800000000     0.190800000000     0.146700000000     0.0535227  
C        C      0.154200000000     0.133100000000     0.170500000000     0.0535227  
C        C      0.107300000000     0.056500000000     0.172190000000     0.0535227  
C        C      0.924400000000     0.093800000000     0.125600000000     0.0535227  
C        C      0.994200000000     0.036300000000     0.149100000000     0.0535227  
C        C      0.172100000000     0.996100000000     0.202570000000     0.0535227  
C        C      0.100000000000     0.006000000000     0.356890000000     0.0535227  
C        C      0.975500000000     0.971300000000     0.303940000000     0.0535227  
C        C      0.876800000000     0.751400000000     0.258680000000     0.0535227  
C        C      0.965500000000     0.748400000000     0.196340000000     0.0535227  
C        C      0.615900000000     0.122900000000     0.564110000000     0.0535227  
C        C      0.560100000000     0.158400000000     0.522070000000     0.0535227  
C        C      0.560500000000     0.113300000000     0.485040000000     0.0535227  
C        C      0.505700000000     0.142100000000     0.447260000000     0.0535227  
C        C      0.451300000000     0.217800000000     0.446580000000     0.0535227  
C        C      0.450900000000     0.265500000000     0.483370000000     0.0535227  
C        C      0.508600000000     0.235400000000     0.520750000000     0.0535227  
C        C      0.471000000000     0.328800000000     0.375080000000     0.0535227  
C        C      0.586800000000     0.309200000000     0.353300000000     0.0535227  
C        C      0.654200000000     0.366900000000     0.329500000000     0.0535227  
C        C      0.607300000000     0.443500000000     0.327810000000     0.0535227  
C        C      0.424400000000     0.406200000000     0.374400000000     0.0535227  
C        C      0.494200000000     0.463700000000     0.350900000000     0.0535227  
C        C      0.672100000000     0.503900000000     0.297430000000     0.0535227  
C        C      0.600000000000     0.494000000000     0.143110000000     0.0535227  
C        C      0.475500000000     0.528700000000     0.196060000000     0.0535227  
C        C      0.376800000000     0.748600000000     0.241320000000     0.0535227  
C        C      0.465500000000     0.751600000000     0.303660000000     0.0535227  
C        C      0.615900000000     0.622900000000     0.935890000000     0.0535227  
C        C      0.560100000000     0.658400000000     0.977930000000     0.0535227  
C        C      0.560500000000     0.613300000000     0.014960000000     0.0535227  
C        C      0.505700000000     0.642100000000     0.052740000000     0.0535227  
C        C      0.451300000000     0.717800000000     0.053420000000     0.0535227  
C        C      0.450900000000     0.765500000000     0.016630000000     0.0535227  
C        C      0.508600000000     0.735400000000     0.979250000000     0.0535227  
C        C      0.471000000000     0.828800000000     0.124920000000     0.0535227  
C        C      0.586800000000     0.809200000000     0.146700000000     0.0535227  
C        C      0.654200000000     0.866900000000     0.170500000000     0.0535227  
C        C      0.607300000000     0.943500000000     0.172190000000     0.0535227  
C        C      0.424400000000     0.906200000000     0.125600000000     0.0535227  
C        C      0.494200000000     0.963700000000     0.149100000000     0.0535227  
C        C      0.672100000000     0.003900000000     0.202570000000     0.0535227  
C        C      0.600000000000     0.994000000000     0.356890000000     0.0535227  
C        C      0.475500000000     0.028700000000     0.303940000000     0.0535227  
C        C      0.376800000000     0.248600000000     0.258680000000     0.0535227  
C        C      0.465500000000     0.251600000000     0.196340000000     0.0535227  
C        C      0.115900000000     0.877100000000     0.564110000000     0.0535227  
C        C      0.060100000000     0.841600000000     0.522070000000     0.0535227  
C        C      0.060500000000     0.886700000000     0.485040000000     0.0535227  
C        C      0.005700000000     0.857900000000     0.447260000000     0.0535227  
C        C      0.951300000000     0.782200000000     0.446580000000     0.0535227  
C        C      0.950900000000     0.734500000000     0.483370000000     0.0535227  
C        C      0.008600000000     0.764600000000     0.520750000000     0.0535227  
C        C      0.971000000000     0.671200000000     0.375080000000     0.0535227  
C        C      0.086800000000     0.690800000000     0.353300000000     0.0535227  
C        C      0.154200000000     0.633100000000     0.329500000000     0.0535227  
C        C      0.107300000000     0.556500000000     0.327810000000     0.0535227  
C        C      0.924400000000     0.593800000000     0.374400000000     0.0535227  
C        C      0.994200000000     0.536300000000     0.350900000000     0.0535227  
C        C      0.172100000000     0.496100000000     0.297430000000     0.0535227  
C        C      0.100000000000     0.506000000000     0.143110000000     0.0535227  
C        C      0.975500000000     0.471300000000     0.196060000000     0.0535227  
C        C      0.876800000000     0.251400000000     0.241320000000     0.0535227  
C        C      0.965500000000     0.248400000000     0.303660000000     0.0535227  
C        C      0.884100000000     0.622900000000     0.064110000000     0.0535227  
C        C      0.939900000000     0.658400000000     0.022070000000     0.0535227  
C        C      0.939500000000     0.613300000000     0.985040000000     0.0535227  
C        C      0.994300000000     0.642100000000     0.947260000000     0.0535227  
C        C      0.048700000000     0.717800000000     0.946580000000     0.0535227  
C        C      0.049100000000     0.765500000000     0.983370000000     0.0535227  
C        C      0.991400000000     0.735400000000     0.020750000000     0.0535227  
C        C      0.029000000000     0.828800000000     0.875080000000     0.0535227  
C        C      0.913200000000     0.809200000000     0.853300000000     0.0535227  
C        C      0.845800000000     0.866900000000     0.829500000000     0.0535227  
C        C      0.892700000000     0.943500000000     0.827810000000     0.0535227  
C        C      0.075600000000     0.906200000000     0.874400000000     0.0535227  
C        C      0.005800000000     0.963700000000     0.850900000000     0.0535227  
C        C      0.827900000000     0.003900000000     0.797430000000     0.0535227  
C        C      0.900000000000     0.994000000000     0.643110000000     0.0535227  
C        C      0.024500000000     0.028700000000     0.696060000000     0.0535227  
C        C      0.123200000000     0.248600000000     0.741320000000     0.0535227  
C        C      0.034500000000     0.251600000000     0.803660000000     0.0535227  
C        C      0.384100000000     0.877100000000     0.435890000000     0.0535227  
C        C      0.439900000000     0.841600000000     0.477930000000     0.0535227  
C        C      0.439500000000     0.886700000000     0.514960000000     0.0535227  
C        C      0.494300000000     0.857900000000     0.552740000000     0.0535227  
C        C      0.548700000000     0.782200000000     0.553420000000     0.0535227  
C        C      0.549100000000     0.734500000000     0.516630000000     0.0535227  
C        C      0.491400000000     0.764600000000     0.479250000000     0.0535227  
C        C      0.529000000000     0.671200000000     0.624920000000     0.0535227  
C        C      0.413200000000     0.690800000000     0.646700000000     0.0535227  
C        C      0.345800000000     0.633100000000     0.670500000000     0.0535227  
C        C      0.392700000000     0.556500000000     0.672190000000     0.0535227  
C        C      0.575600000000     0.593800000000     0.625600000000     0.0535227  
C        C      0.505800000000     0.536300000000     0.649100000000     0.0535227  
C        C      0.327900000000     0.496100000000     0.702570000000     0.0535227  
C        C      0.400000000000     0.506000000000     0.856890000000     0.0535227  
C        C      0.524500000000     0.471300000000     0.803940000000     0.0535227  
C        C      0.623200000000     0.251400000000     0.758680000000     0.0535227  
C        C      0.534500000000     0.248400000000     0.696340000000     0.0535227  
S        S      0.631850000000     0.247440000000     0.898900000000     0.269858   
S        S      0.131850000000     0.252560000000     0.601100000000     0.269858   
S        S      0.868150000000     0.247440000000     0.101100000000     0.269858   
S        S      0.368150000000     0.252560000000     0.398900000000     0.269858   
S        S      0.368150000000     0.752560000000     0.101100000000     0.269858   
S        S      0.868150000000     0.747440000000     0.398900000000     0.269858   
S        S      0.131850000000     0.752560000000     0.898900000000     0.269858   
S        S      0.631850000000     0.747440000000     0.601100000000     0.269858   
N        N      0.517000000000     0.025200000000     0.663480000000    -0.213013   
N        N      0.351000000000     0.045000000000     0.608080000000    -0.213013   
N        N      0.339000000000     0.943000000000     0.661830000000    -0.213013   
N        N      0.421700000000     0.921200000000     0.696520000000    -0.213013   
N        N      0.519400000000     0.783600000000     0.764550000000    -0.213013   
N        N      0.451000000000     0.764000000000     0.837530000000    -0.213013   
N        N      0.636900000000     0.697000000000     0.805320000000    -0.213013   
N        N      0.693600000000     0.699300000000     0.763880000000    -0.213013   
N        N      0.017000000000     0.474800000000     0.836520000000    -0.213013   
N        N      0.851000000000     0.455000000000     0.891920000000    -0.213013   
N        N      0.839000000000     0.557000000000     0.838170000000    -0.213013   
N        N      0.921700000000     0.578800000000     0.803480000000    -0.213013   
N        N      0.019400000000     0.716400000000     0.735450000000    -0.213013   
N        N      0.951000000000     0.736000000000     0.662470000000    -0.213013   
N        N      0.136900000000     0.803000000000     0.694680000000    -0.213013   
N        N      0.193600000000     0.800700000000     0.736120000000    -0.213013   
N        N      0.983000000000     0.025200000000     0.336520000000    -0.213013   
N        N      0.149000000000     0.045000000000     0.391920000000    -0.213013   
N        N      0.161000000000     0.943000000000     0.338170000000    -0.213013   
N        N      0.078300000000     0.921200000000     0.303480000000    -0.213013   
N        N      0.980600000000     0.783600000000     0.235450000000    -0.213013   
N        N      0.049000000000     0.764000000000     0.162470000000    -0.213013   
N        N      0.863100000000     0.697000000000     0.194680000000    -0.213013   
N        N      0.806400000000     0.699300000000     0.236120000000    -0.213013   
N        N      0.483000000000     0.474800000000     0.163480000000    -0.213013   
N        N      0.649000000000     0.455000000000     0.108080000000    -0.213013   
N        N      0.661000000000     0.557000000000     0.161830000000    -0.213013   
N        N      0.578300000000     0.578800000000     0.196520000000    -0.213013   
N        N      0.480600000000     0.716400000000     0.264550000000    -0.213013   
N        N      0.549000000000     0.736000000000     0.337530000000    -0.213013   
N        N      0.363100000000     0.803000000000     0.305320000000    -0.213013   
N        N      0.306400000000     0.800700000000     0.263880000000    -0.213013   
N        N      0.483000000000     0.974800000000     0.336520000000    -0.213013   
N        N      0.649000000000     0.955000000000     0.391920000000    -0.213013   
N        N      0.661000000000     0.057000000000     0.338170000000    -0.213013   
N        N      0.578300000000     0.078800000000     0.303480000000    -0.213013   
N        N      0.480600000000     0.216400000000     0.235450000000    -0.213013   
N        N      0.549000000000     0.236000000000     0.162470000000    -0.213013   
N        N      0.363100000000     0.303000000000     0.194680000000    -0.213013   
N        N      0.306400000000     0.300700000000     0.236120000000    -0.213013   
N        N      0.983000000000     0.525200000000     0.163480000000    -0.213013   
N        N      0.149000000000     0.545000000000     0.108080000000    -0.213013   
N        N      0.161000000000     0.443000000000     0.161830000000    -0.213013   
N        N      0.078300000000     0.421200000000     0.196520000000    -0.213013   
N        N      0.980600000000     0.283600000000     0.264550000000    -0.213013   
N        N      0.049000000000     0.264000000000     0.337530000000    -0.213013   
N        N      0.863100000000     0.197000000000     0.305320000000    -0.213013   
N        N      0.806400000000     0.199300000000     0.263880000000    -0.213013   
N        N      0.017000000000     0.974800000000     0.663480000000    -0.213013   
N        N      0.851000000000     0.955000000000     0.608080000000    -0.213013   
N        N      0.839000000000     0.057000000000     0.661830000000    -0.213013   
N        N      0.921700000000     0.078800000000     0.696520000000    -0.213013   
N        N      0.019400000000     0.216400000000     0.764550000000    -0.213013   
N        N      0.951000000000     0.236000000000     0.837530000000    -0.213013   
N        N      0.136900000000     0.303000000000     0.805320000000    -0.213013   
N        N      0.193600000000     0.300700000000     0.763880000000    -0.213013   
N        N      0.517000000000     0.525200000000     0.836520000000    -0.213013   
N        N      0.351000000000     0.545000000000     0.891920000000    -0.213013   
N        N      0.339000000000     0.443000000000     0.838170000000    -0.213013   
N        N      0.421700000000     0.421200000000     0.803480000000    -0.213013   
N        N      0.519400000000     0.283600000000     0.735450000000    -0.213013   
N        N      0.451000000000     0.264000000000     0.662470000000    -0.213013   
N        N      0.636900000000     0.197000000000     0.694680000000    -0.213013   
N        N      0.693600000000     0.199300000000     0.736120000000    -0.213013   
O        O      0.341600000000     0.446400000000     0.064870000000    -0.268095   
O        O      0.390100000000     0.332100000000     0.097950000000    -0.268095   
O        O      0.635300000000     0.313700000000     0.868380000000    -0.268095   
O        O      0.755500000000     0.209300000000     0.912020000000    -0.268095   
O        O      0.245500000000     0.018500000000     0.770640000000    -0.268095   
O        O      0.369800000000     0.922600000000     0.801340000000    -0.268095   
O        O      0.841600000000     0.053600000000     0.435130000000    -0.268095   
O        O      0.890100000000     0.167900000000     0.402050000000    -0.268095   
O        O      0.135300000000     0.186300000000     0.631620000000    -0.268095   
O        O      0.255500000000     0.290700000000     0.587980000000    -0.268095   
O        O      0.745500000000     0.481500000000     0.729360000000    -0.268095   
O        O      0.869800000000     0.577400000000     0.698660000000    -0.268095   
O        O      0.158400000000     0.446400000000     0.935130000000    -0.268095   
O        O      0.109900000000     0.332100000000     0.902050000000    -0.268095   
O        O      0.864700000000     0.313700000000     0.131620000000    -0.268095   
O        O      0.744500000000     0.209300000000     0.087980000000    -0.268095   
O        O      0.254500000000     0.018500000000     0.229360000000    -0.268095   
O        O      0.130200000000     0.922600000000     0.198660000000    -0.268095   
O        O      0.658400000000     0.053600000000     0.564870000000    -0.268095   
O        O      0.609900000000     0.167900000000     0.597950000000    -0.268095   
O        O      0.364700000000     0.186300000000     0.368380000000    -0.268095   
O        O      0.244500000000     0.290700000000     0.412020000000    -0.268095   
O        O      0.754500000000     0.481500000000     0.270640000000    -0.268095   
O        O      0.630200000000     0.577400000000     0.301340000000    -0.268095   
O        O      0.658400000000     0.553600000000     0.935130000000    -0.268095   
O        O      0.609900000000     0.667900000000     0.902050000000    -0.268095   
O        O      0.364700000000     0.686300000000     0.131620000000    -0.268095   
O        O      0.244500000000     0.790700000000     0.087980000000    -0.268095   
O        O      0.754500000000     0.981500000000     0.229360000000    -0.268095   
O        O      0.630200000000     0.077400000000     0.198660000000    -0.268095   
O        O      0.158400000000     0.946400000000     0.564870000000    -0.268095   
O        O      0.109900000000     0.832100000000     0.597950000000    -0.268095   
O        O      0.864700000000     0.813700000000     0.368380000000    -0.268095   
O        O      0.744500000000     0.709300000000     0.412020000000    -0.268095   
O        O      0.254500000000     0.518500000000     0.270640000000    -0.268095   
O        O      0.130200000000     0.422600000000     0.301340000000    -0.268095   
O        O      0.841600000000     0.553600000000     0.064870000000    -0.268095   
O        O      0.890100000000     0.667900000000     0.097950000000    -0.268095   
O        O      0.135300000000     0.686300000000     0.868380000000    -0.268095   
O        O      0.255500000000     0.790700000000     0.912020000000    -0.268095   
O        O      0.745500000000     0.981500000000     0.770640000000    -0.268095   
O        O      0.869800000000     0.077400000000     0.801340000000    -0.268095   
O        O      0.341600000000     0.946400000000     0.435130000000    -0.268095   
O        O      0.390100000000     0.832100000000     0.402050000000    -0.268095   
O        O      0.635300000000     0.813700000000     0.631620000000    -0.268095   
O        O      0.755500000000     0.709300000000     0.587980000000    -0.268095   
O        O      0.245500000000     0.518500000000     0.729360000000    -0.268095   
O        O      0.369800000000     0.422600000000     0.698660000000    -0.268095   


