data_VONBIK_original

_audit_creation_method RASPA-1.0
_audit_creation_date 2022-1-30
_audit_author_name 'Felipe Lopes de Oliveira <felipe.lopes.oliveira@ibm.com>'

_cell_length_a    16.441
_cell_length_b    17.309
_cell_length_c    18.128
_cell_angle_alpha 92.439
_cell_angle_beta  90
_cell_angle_gamma 90
_cell_volume      5154.14

_symmetry_cell_setting          triclinic
_symmetry_space_group_name_Hall 'P 1'
_symmetry_space_group_name_H-M  'P 1'
_symmetry_Int_Tables_number     1

_symmetry_equiv_pos_as_xyz 'x,y,z'

loop_
_atom_site_label
_atom_site_type_symbol
_atom_site_fract_x
_atom_site_fract_y
_atom_site_fract_z
_atom_site_charge
Zn       Zn     0.499070000000     0.724030000000     0.227560000000     0.425738   
Zn       Zn     0.006250000000     0.708310000000     0.790860000000     0.425738   
Zn       Zn     0.000930000000     0.224030000000     0.727560000000     0.425738   
Zn       Zn     0.493750000000     0.208310000000     0.290860000000     0.425738   
Zn       Zn     0.999070000000     0.775970000000     0.272440000000     0.425738   
Zn       Zn     0.506250000000     0.791690000000     0.709140000000     0.425738   
Zn       Zn     0.500930000000     0.275970000000     0.772440000000     0.425738   
Zn       Zn     0.993750000000     0.291690000000     0.209140000000     0.425738   
H        H      0.827500000000     0.693600000000     0.524700000000     0.0612084  
H        H      0.821200000000     0.783500000000     0.538600000000     0.0612084  
H        H      0.698900000000     0.755700000000     0.610700000000     0.0612084  
H        H      0.731200000000     0.670400000000     0.610000000000     0.0612084  
H        H      0.771500000000     0.847700000000     0.304200000000     0.0612084  
H        H      0.819000000000     0.755200000000     0.396100000000     0.0612084  
H        H      0.782700000000     0.671300000000     0.391400000000     0.0612084  
H        H      0.823600000000     0.586500000000     0.602500000000     0.0612084  
H        H      0.248700000000     0.021800000000     0.754200000000     0.0612084  
H        H      0.521900000000     0.145000000000     0.538900000000     0.0612084  
H        H      0.686800000000     0.701700000000     0.478800000000     0.0612084  
H        H      0.703700000000     0.790600000000     0.474200000000     0.0612084  
H        H      0.863100000000     0.858700000000     0.794500000000     0.0612084  
H        H      0.147400000000     0.937200000000     0.784900000000     0.0612084  
H        H      0.484300000000     0.084500000000     0.645000000000     0.0612084  
H        H      0.156800000000     0.441000000000     0.720400000000     0.0612084  
H        H      0.264000000000     0.524100000000     0.744100000000     0.0612084  
H        H      0.317400000000     0.501100000000     0.962700000000     0.0612084  
H        H      0.296200000000     0.986900000000     0.536500000000     0.0612084  
H        H      0.998300000000     0.441500000000     0.662000000000     0.0612084  
H        H      0.683600000000     0.595000000000     0.400900000000     0.0612084  
H        H      0.225900000000     0.784100000000     0.629000000000     0.0612084  
H        H      0.236200000000     0.302300000000     0.875600000000     0.0612084  
H        H      0.045600000000     0.536400000000     0.744600000000     0.0612084  
H        H      0.750600000000     0.850200000000     0.705300000000     0.0612084  
H        H      0.331000000000     0.867300000000     0.600700000000     0.0612084  
H        H      0.609000000000     0.482500000000     0.414800000000     0.0612084  
H        H      0.347500000000     0.382200000000     0.897000000000     0.0612084  
H        H      0.494500000000     0.604000000000     0.853100000000     0.0612084  
H        H      0.334700000000     0.048400000000     0.431200000000     0.0612084  
H        H      0.886700000000     0.467000000000     0.590300000000     0.0612084  
H        H      0.654000000000     0.860600000000     0.221200000000     0.0612084  
H        H      0.359600000000     0.564400000000     0.071000000000     0.0612084  
H        H      0.445200000000     0.560200000000     0.275000000000     0.0612084  
H        H      0.488300000000     0.465400000000     0.350000000000     0.0612084  
H        H      0.534600000000     0.669000000000     0.960200000000     0.0612084  
H        H      0.672500000000     0.193600000000     0.024700000000     0.0612084  
H        H      0.678800000000     0.283500000000     0.038600000000     0.0612084  
H        H      0.801100000000     0.255700000000     0.110700000000     0.0612084  
H        H      0.768800000000     0.170400000000     0.110000000000     0.0612084  
H        H      0.728500000000     0.347700000000     0.804200000000     0.0612084  
H        H      0.681000000000     0.255200000000     0.896100000000     0.0612084  
H        H      0.717300000000     0.171300000000     0.891400000000     0.0612084  
H        H      0.676400000000     0.086500000000     0.102500000000     0.0612084  
H        H      0.251300000000     0.521800000000     0.254200000000     0.0612084  
H        H      0.978100000000     0.645000000000     0.038900000000     0.0612084  
H        H      0.813200000000     0.201700000000     0.978800000000     0.0612084  
H        H      0.796300000000     0.290600000000     0.974200000000     0.0612084  
H        H      0.636900000000     0.358700000000     0.294500000000     0.0612084  
H        H      0.352600000000     0.437200000000     0.284900000000     0.0612084  
H        H      0.015700000000     0.584500000000     0.145000000000     0.0612084  
H        H      0.343200000000     0.941000000000     0.220400000000     0.0612084  
H        H      0.236000000000     0.024100000000     0.244100000000     0.0612084  
H        H      0.182600000000     0.001100000000     0.462700000000     0.0612084  
H        H      0.203800000000     0.486900000000     0.036500000000     0.0612084  
H        H      0.501700000000     0.941500000000     0.162000000000     0.0612084  
H        H      0.816400000000     0.095000000000     0.900900000000     0.0612084  
H        H      0.274100000000     0.284100000000     0.129000000000     0.0612084  
H        H      0.263800000000     0.802300000000     0.375600000000     0.0612084  
H        H      0.454400000000     0.036400000000     0.244600000000     0.0612084  
H        H      0.749400000000     0.350200000000     0.205300000000     0.0612084  
H        H      0.169000000000     0.367300000000     0.100700000000     0.0612084  
H        H      0.891000000000     0.982500000000     0.914800000000     0.0612084  
H        H      0.152500000000     0.882200000000     0.397000000000     0.0612084  
H        H      0.005500000000     0.104000000000     0.353100000000     0.0612084  
H        H      0.165300000000     0.548400000000     0.931200000000     0.0612084  
H        H      0.613300000000     0.967000000000     0.090300000000     0.0612084  
H        H      0.846000000000     0.360600000000     0.721200000000     0.0612084  
H        H      0.140400000000     0.064400000000     0.571000000000     0.0612084  
H        H      0.054800000000     0.060200000000     0.775000000000     0.0612084  
H        H      0.011700000000     0.965400000000     0.850000000000     0.0612084  
H        H      0.965400000000     0.169000000000     0.460200000000     0.0612084  
H        H      0.327500000000     0.806400000000     0.975300000000     0.0612084  
H        H      0.321200000000     0.716500000000     0.961400000000     0.0612084  
H        H      0.198900000000     0.744300000000     0.889300000000     0.0612084  
H        H      0.231200000000     0.829600000000     0.890000000000     0.0612084  
H        H      0.271500000000     0.652300000000     0.195800000000     0.0612084  
H        H      0.319000000000     0.744800000000     0.103900000000     0.0612084  
H        H      0.282700000000     0.828700000000     0.108600000000     0.0612084  
H        H      0.323600000000     0.913500000000     0.897500000000     0.0612084  
H        H      0.748700000000     0.478200000000     0.745800000000     0.0612084  
H        H      0.021900000000     0.355000000000     0.961100000000     0.0612084  
H        H      0.186800000000     0.798300000000     0.021200000000     0.0612084  
H        H      0.203700000000     0.709400000000     0.025800000000     0.0612084  
H        H      0.363100000000     0.641300000000     0.705500000000     0.0612084  
H        H      0.647400000000     0.562800000000     0.715100000000     0.0612084  
H        H      0.984300000000     0.415500000000     0.855000000000     0.0612084  
H        H      0.656800000000     0.059000000000     0.779600000000     0.0612084  
H        H      0.764000000000     0.975900000000     0.755900000000     0.0612084  
H        H      0.817400000000     0.998900000000     0.537300000000     0.0612084  
H        H      0.796200000000     0.513100000000     0.963500000000     0.0612084  
H        H      0.498300000000     0.058500000000     0.838000000000     0.0612084  
H        H      0.183600000000     0.905000000000     0.099100000000     0.0612084  
H        H      0.725900000000     0.715900000000     0.871000000000     0.0612084  
H        H      0.736200000000     0.197700000000     0.624400000000     0.0612084  
H        H      0.545600000000     0.963600000000     0.755400000000     0.0612084  
H        H      0.250600000000     0.649800000000     0.794700000000     0.0612084  
H        H      0.831000000000     0.632700000000     0.899300000000     0.0612084  
H        H      0.109000000000     0.017500000000     0.085200000000     0.0612084  
H        H      0.847500000000     0.117800000000     0.603000000000     0.0612084  
H        H      0.994500000000     0.896000000000     0.646900000000     0.0612084  
H        H      0.834700000000     0.451600000000     0.068800000000     0.0612084  
H        H      0.386700000000     0.033000000000     0.909700000000     0.0612084  
H        H      0.154000000000     0.639400000000     0.278800000000     0.0612084  
H        H      0.859600000000     0.935600000000     0.429000000000     0.0612084  
H        H      0.945200000000     0.939800000000     0.225000000000     0.0612084  
H        H      0.988300000000     0.034600000000     0.150000000000     0.0612084  
H        H      0.034600000000     0.831000000000     0.539800000000     0.0612084  
H        H      0.172500000000     0.306400000000     0.475300000000     0.0612084  
H        H      0.178800000000     0.216500000000     0.461400000000     0.0612084  
H        H      0.301100000000     0.244300000000     0.389300000000     0.0612084  
H        H      0.268800000000     0.329600000000     0.390000000000     0.0612084  
H        H      0.228500000000     0.152300000000     0.695800000000     0.0612084  
H        H      0.181000000000     0.244800000000     0.603900000000     0.0612084  
H        H      0.217300000000     0.328700000000     0.608600000000     0.0612084  
H        H      0.176400000000     0.413500000000     0.397500000000     0.0612084  
H        H      0.751300000000     0.978200000000     0.245800000000     0.0612084  
H        H      0.478100000000     0.855000000000     0.461100000000     0.0612084  
H        H      0.313200000000     0.298300000000     0.521200000000     0.0612084  
H        H      0.296300000000     0.209400000000     0.525800000000     0.0612084  
H        H      0.136900000000     0.141300000000     0.205500000000     0.0612084  
H        H      0.852600000000     0.062800000000     0.215100000000     0.0612084  
H        H      0.515700000000     0.915500000000     0.355000000000     0.0612084  
H        H      0.843200000000     0.559000000000     0.279600000000     0.0612084  
H        H      0.736000000000     0.475900000000     0.255900000000     0.0612084  
H        H      0.682600000000     0.498900000000     0.037300000000     0.0612084  
H        H      0.703800000000     0.013100000000     0.463500000000     0.0612084  
H        H      0.001700000000     0.558500000000     0.338000000000     0.0612084  
H        H      0.316400000000     0.405000000000     0.599100000000     0.0612084  
H        H      0.774100000000     0.215900000000     0.371000000000     0.0612084  
H        H      0.763800000000     0.697700000000     0.124400000000     0.0612084  
H        H      0.954400000000     0.463600000000     0.255400000000     0.0612084  
H        H      0.249400000000     0.149800000000     0.294700000000     0.0612084  
H        H      0.669000000000     0.132700000000     0.399300000000     0.0612084  
H        H      0.391000000000     0.517500000000     0.585200000000     0.0612084  
H        H      0.652500000000     0.617800000000     0.103000000000     0.0612084  
H        H      0.505500000000     0.396000000000     0.146900000000     0.0612084  
H        H      0.665300000000     0.951600000000     0.568800000000     0.0612084  
H        H      0.113300000000     0.533000000000     0.409700000000     0.0612084  
H        H      0.346000000000     0.139400000000     0.778800000000     0.0612084  
H        H      0.640400000000     0.435600000000     0.929000000000     0.0612084  
H        H      0.554800000000     0.439800000000     0.725000000000     0.0612084  
H        H      0.511700000000     0.534600000000     0.650000000000     0.0612084  
H        H      0.465400000000     0.331000000000     0.039800000000     0.0612084  
C        C      0.644900000000     0.715700000000     0.312440000000     0.0142572  
C        C      0.453000000000     0.143900000000     0.405600000000     0.0142572  
C        C      0.790000000000     0.735900000000     0.535100000000     0.0142572  
C        C      0.747700000000     0.724100000000     0.608010000000     0.0142572  
C        C      0.865500000000     0.707800000000     0.699260000000     0.0142572  
C        C      0.727600000000     0.814000000000     0.299200000000     0.0142572  
C        C      0.768900000000     0.725700000000     0.397790000000     0.0142572  
C        C      0.899200000000     0.630800000000     0.681020000000     0.0142572  
C        C      0.112500000000     0.795800000000     0.734300000000     0.0142572  
C        C      0.175900000000     0.851300000000     0.710500000000     0.0142572  
C        C      0.185000000000     0.363100000000     0.795200000000     0.0142572  
C        C      0.402700000000     0.544900000000     0.898000000000     0.0142572  
C        C      0.473600000000     0.667400000000     0.097300000000     0.0142572  
C        C      0.300000000000     0.951200000000     0.675800000000     0.0142572  
C        C      0.385900000000     0.030600000000     0.601200000000     0.0142572  
C        C      0.868900000000     0.575800000000     0.631000000000     0.0142572  
C        C      0.244800000000     0.973500000000     0.730000000000     0.0142572  
C        C      0.476000000000     0.113400000000     0.538300000000     0.0142572  
C        C      0.729100000000     0.740000000000     0.472410000000     0.0142572  
C        C      0.315200000000     0.461100000000     0.823400000000     0.0142572  
C        C      0.605000000000     0.643000000000     0.331190000000     0.0142572  
C        C      0.853200000000     0.817700000000     0.760900000000     0.0142572  
C        C      0.450700000000     0.624100000000     0.027300000000     0.0142572  
C        C      0.183900000000     0.923100000000     0.747500000000     0.0142572  
C        C      0.453700000000     0.077300000000     0.602100000000     0.0142572  
C        C      0.194600000000     0.429500000000     0.756500000000     0.0142572  
C        C      0.258700000000     0.479200000000     0.770200000000     0.0142572  
C        C      0.361800000000     0.534300000000     0.962200000000     0.0142572  
C        C      0.341500000000     0.019100000000     0.537400000000     0.0142572  
C        C      0.972600000000     0.489400000000     0.666100000000     0.0142572  
C        C      0.634500000000     0.587500000000     0.376100000000     0.0142572  
C        C      0.431400000000     0.103400000000     0.473900000000     0.0142572  
C        C      0.231100000000     0.831400000000     0.654900000000     0.0142572  
C        C      0.242300000000     0.346500000000     0.848600000000     0.0142572  
C        C      0.000900000000     0.546800000000     0.715200000000     0.0142572  
C        C      0.791000000000     0.813500000000     0.711400000000     0.0142572  
C        C      0.293800000000     0.881100000000     0.637500000000     0.0142572  
C        C      0.590400000000     0.520300000000     0.384000000000     0.0142572  
C        C      0.308400000000     0.394500000000     0.862300000000     0.0142572  
C        C      0.467200000000     0.596000000000     0.897100000000     0.0142572  
C        C      0.364900000000     0.056000000000     0.474300000000     0.0142572  
C        C      0.906500000000     0.504600000000     0.623900000000     0.0142572  
C        C      0.662400000000     0.820700000000     0.253100000000     0.0142572  
C        C      0.386700000000     0.573100000000     0.027100000000     0.0142572  
C        C      0.493200000000     0.567500000000     0.301600000000     0.0142572  
C        C      0.518800000000     0.510300000000     0.345800000000     0.0142572  
C        C      0.490900000000     0.634900000000     0.961200000000     0.0142572  
C        C      0.116200000000     0.308700000000     0.777100000000     0.0142572  
C        C      0.855100000000     0.215700000000     0.812440000000     0.0142572  
C        C      0.047000000000     0.643900000000     0.905600000000     0.0142572  
C        C      0.710000000000     0.235900000000     0.035100000000     0.0142572  
C        C      0.752300000000     0.224100000000     0.108010000000     0.0142572  
C        C      0.634500000000     0.207800000000     0.199260000000     0.0142572  
C        C      0.772400000000     0.314000000000     0.799200000000     0.0142572  
C        C      0.731100000000     0.225700000000     0.897790000000     0.0142572  
C        C      0.600800000000     0.130800000000     0.181020000000     0.0142572  
C        C      0.387500000000     0.295800000000     0.234300000000     0.0142572  
C        C      0.324100000000     0.351300000000     0.210500000000     0.0142572  
C        C      0.315000000000     0.863100000000     0.295200000000     0.0142572  
C        C      0.097300000000     0.044900000000     0.398000000000     0.0142572  
C        C      0.026400000000     0.167400000000     0.597300000000     0.0142572  
C        C      0.200000000000     0.451200000000     0.175800000000     0.0142572  
C        C      0.114100000000     0.530600000000     0.101200000000     0.0142572  
C        C      0.631100000000     0.075800000000     0.131000000000     0.0142572  
C        C      0.255200000000     0.473500000000     0.230000000000     0.0142572  
C        C      0.024000000000     0.613400000000     0.038300000000     0.0142572  
C        C      0.770900000000     0.240000000000     0.972410000000     0.0142572  
C        C      0.184800000000     0.961100000000     0.323400000000     0.0142572  
C        C      0.895000000000     0.143000000000     0.831190000000     0.0142572  
C        C      0.646800000000     0.317700000000     0.260900000000     0.0142572  
C        C      0.049300000000     0.124100000000     0.527300000000     0.0142572  
C        C      0.316100000000     0.423100000000     0.247500000000     0.0142572  
C        C      0.046300000000     0.577300000000     0.102100000000     0.0142572  
C        C      0.305400000000     0.929500000000     0.256500000000     0.0142572  
C        C      0.241300000000     0.979200000000     0.270200000000     0.0142572  
C        C      0.138200000000     0.034300000000     0.462200000000     0.0142572  
C        C      0.158500000000     0.519100000000     0.037400000000     0.0142572  
C        C      0.527400000000     0.989400000000     0.166100000000     0.0142572  
C        C      0.865500000000     0.087500000000     0.876100000000     0.0142572  
C        C      0.068600000000     0.603400000000     0.973900000000     0.0142572  
C        C      0.268900000000     0.331400000000     0.154900000000     0.0142572  
C        C      0.257700000000     0.846500000000     0.348600000000     0.0142572  
C        C      0.499100000000     0.046800000000     0.215200000000     0.0142572  
C        C      0.709000000000     0.313500000000     0.211400000000     0.0142572  
C        C      0.206200000000     0.381100000000     0.137500000000     0.0142572  
C        C      0.909600000000     0.020300000000     0.884000000000     0.0142572  
C        C      0.191600000000     0.894500000000     0.362300000000     0.0142572  
C        C      0.032800000000     0.096000000000     0.397100000000     0.0142572  
C        C      0.135100000000     0.556000000000     0.974300000000     0.0142572  
C        C      0.593500000000     0.004600000000     0.123900000000     0.0142572  
C        C      0.837600000000     0.320700000000     0.753100000000     0.0142572  
C        C      0.113300000000     0.073100000000     0.527100000000     0.0142572  
C        C      0.006800000000     0.067500000000     0.801600000000     0.0142572  
C        C      0.981200000000     0.010300000000     0.845800000000     0.0142572  
C        C      0.009100000000     0.134900000000     0.461200000000     0.0142572  
C        C      0.383800000000     0.808700000000     0.277100000000     0.0142572  
C        C      0.144900000000     0.784300000000     0.187560000000     0.0142572  
C        C      0.953000000000     0.356100000000     0.094400000000     0.0142572  
C        C      0.290000000000     0.764100000000     0.964900000000     0.0142572  
C        C      0.247700000000     0.775900000000     0.891990000000     0.0142572  
C        C      0.365500000000     0.792200000000     0.800740000000     0.0142572  
C        C      0.227600000000     0.686000000000     0.200800000000     0.0142572  
C        C      0.268900000000     0.774300000000     0.102210000000     0.0142572  
C        C      0.399200000000     0.869200000000     0.818980000000     0.0142572  
C        C      0.612500000000     0.704200000000     0.765700000000     0.0142572  
C        C      0.675900000000     0.648700000000     0.789500000000     0.0142572  
C        C      0.685000000000     0.136900000000     0.704800000000     0.0142572  
C        C      0.902700000000     0.955100000000     0.602000000000     0.0142572  
C        C      0.973600000000     0.832600000000     0.402700000000     0.0142572  
C        C      0.800000000000     0.548800000000     0.824200000000     0.0142572  
C        C      0.885900000000     0.469400000000     0.898800000000     0.0142572  
C        C      0.368900000000     0.924200000000     0.869000000000     0.0142572  
C        C      0.744800000000     0.526500000000     0.770000000000     0.0142572  
C        C      0.976000000000     0.386600000000     0.961700000000     0.0142572  
C        C      0.229100000000     0.760000000000     0.027590000000     0.0142572  
C        C      0.815200000000     0.038900000000     0.676600000000     0.0142572  
C        C      0.105000000000     0.857000000000     0.168810000000     0.0142572  
C        C      0.353200000000     0.682300000000     0.739100000000     0.0142572  
C        C      0.950700000000     0.875900000000     0.472700000000     0.0142572  
C        C      0.683900000000     0.576900000000     0.752500000000     0.0142572  
C        C      0.953700000000     0.422700000000     0.897900000000     0.0142572  
C        C      0.694600000000     0.070500000000     0.743500000000     0.0142572  
C        C      0.758700000000     0.020800000000     0.729800000000     0.0142572  
C        C      0.861800000000     0.965700000000     0.537800000000     0.0142572  
C        C      0.841500000000     0.480900000000     0.962600000000     0.0142572  
C        C      0.472600000000     0.010600000000     0.833900000000     0.0142572  
C        C      0.134500000000     0.912500000000     0.123900000000     0.0142572  
C        C      0.931400000000     0.396600000000     0.026100000000     0.0142572  
C        C      0.731100000000     0.668600000000     0.845100000000     0.0142572  
C        C      0.742300000000     0.153500000000     0.651400000000     0.0142572  
C        C      0.500900000000     0.953200000000     0.784800000000     0.0142572  
C        C      0.291000000000     0.686500000000     0.788600000000     0.0142572  
C        C      0.793800000000     0.618900000000     0.862500000000     0.0142572  
C        C      0.090400000000     0.979700000000     0.116000000000     0.0142572  
C        C      0.808400000000     0.105500000000     0.637700000000     0.0142572  
C        C      0.967200000000     0.904000000000     0.602900000000     0.0142572  
C        C      0.864900000000     0.444000000000     0.025700000000     0.0142572  
C        C      0.406500000000     0.995400000000     0.876100000000     0.0142572  
C        C      0.162400000000     0.679300000000     0.246900000000     0.0142572  
C        C      0.886700000000     0.926900000000     0.472900000000     0.0142572  
C        C      0.993200000000     0.932500000000     0.198400000000     0.0142572  
C        C      0.018800000000     0.989700000000     0.154200000000     0.0142572  
C        C      0.990900000000     0.865100000000     0.538800000000     0.0142572  
C        C      0.616200000000     0.191300000000     0.722900000000     0.0142572  
C        C      0.355100000000     0.284300000000     0.687560000000     0.0142572  
C        C      0.547000000000     0.856100000000     0.594400000000     0.0142572  
C        C      0.210000000000     0.264100000000     0.464900000000     0.0142572  
C        C      0.252300000000     0.275900000000     0.391990000000     0.0142572  
C        C      0.134500000000     0.292200000000     0.300740000000     0.0142572  
C        C      0.272400000000     0.186000000000     0.700800000000     0.0142572  
C        C      0.231100000000     0.274300000000     0.602210000000     0.0142572  
C        C      0.100800000000     0.369200000000     0.318980000000     0.0142572  
C        C      0.887500000000     0.204200000000     0.265700000000     0.0142572  
C        C      0.824100000000     0.148700000000     0.289500000000     0.0142572  
C        C      0.815000000000     0.636900000000     0.204800000000     0.0142572  
C        C      0.597300000000     0.455100000000     0.102000000000     0.0142572  
C        C      0.526400000000     0.332600000000     0.902700000000     0.0142572  
C        C      0.700000000000     0.048800000000     0.324200000000     0.0142572  
C        C      0.614100000000     0.969400000000     0.398800000000     0.0142572  
C        C      0.131100000000     0.424200000000     0.369000000000     0.0142572  
C        C      0.755200000000     0.026500000000     0.270000000000     0.0142572  
C        C      0.524000000000     0.886600000000     0.461700000000     0.0142572  
C        C      0.270900000000     0.260000000000     0.527590000000     0.0142572  
C        C      0.684800000000     0.538900000000     0.176600000000     0.0142572  
C        C      0.395000000000     0.357000000000     0.668810000000     0.0142572  
C        C      0.146800000000     0.182300000000     0.239100000000     0.0142572  
C        C      0.549300000000     0.375900000000     0.972700000000     0.0142572  
C        C      0.816100000000     0.076900000000     0.252500000000     0.0142572  
C        C      0.546300000000     0.922700000000     0.397900000000     0.0142572  
C        C      0.805400000000     0.570500000000     0.243500000000     0.0142572  
C        C      0.741300000000     0.520800000000     0.229800000000     0.0142572  
C        C      0.638200000000     0.465700000000     0.037800000000     0.0142572  
C        C      0.658500000000     0.980900000000     0.462600000000     0.0142572  
C        C      0.027400000000     0.510600000000     0.333900000000     0.0142572  
C        C      0.365500000000     0.412500000000     0.623900000000     0.0142572  
C        C      0.568600000000     0.896600000000     0.526100000000     0.0142572  
C        C      0.768900000000     0.168600000000     0.345100000000     0.0142572  
C        C      0.757700000000     0.653500000000     0.151400000000     0.0142572  
C        C      0.999100000000     0.453200000000     0.284800000000     0.0142572  
C        C      0.209000000000     0.186500000000     0.288600000000     0.0142572  
C        C      0.706200000000     0.118900000000     0.362500000000     0.0142572  
C        C      0.409600000000     0.479700000000     0.616000000000     0.0142572  
C        C      0.691600000000     0.605500000000     0.137700000000     0.0142572  
C        C      0.532800000000     0.404000000000     0.102900000000     0.0142572  
C        C      0.635100000000     0.944000000000     0.525700000000     0.0142572  
C        C      0.093500000000     0.495400000000     0.376100000000     0.0142572  
C        C      0.337600000000     0.179300000000     0.746900000000     0.0142572  
C        C      0.613300000000     0.426900000000     0.972900000000     0.0142572  
C        C      0.506800000000     0.432500000000     0.698400000000     0.0142572  
C        C      0.481200000000     0.489700000000     0.654200000000     0.0142572  
C        C      0.509100000000     0.365100000000     0.038800000000     0.0142572  
C        C      0.883800000000     0.691300000000     0.222900000000     0.0142572  
N        N      0.799820000000     0.744190000000     0.672170000000    -0.138956   
N        N      0.715380000000     0.747670000000     0.336740000000    -0.138956   
N        N      0.966360000000     0.615950000000     0.721730000000    -0.138956   
N        N      0.533700000000     0.632850000000     0.294870000000    -0.138956   
N        N      0.611700000000     0.759240000000     0.261470000000    -0.138956   
N        N      0.898690000000     0.751760000000     0.753180000000    -0.138956   
N        N      0.700180000000     0.244190000000     0.172170000000    -0.138956   
N        N      0.784620000000     0.247670000000     0.836740000000    -0.138956   
N        N      0.533640000000     0.115950000000     0.221730000000    -0.138956   
N        N      0.966300000000     0.132850000000     0.794870000000    -0.138956   
N        N      0.888300000000     0.259240000000     0.761470000000    -0.138956   
N        N      0.601310000000     0.251760000000     0.253180000000    -0.138956   
N        N      0.299820000000     0.755810000000     0.827830000000    -0.138956   
N        N      0.215380000000     0.752330000000     0.163260000000    -0.138956   
N        N      0.466360000000     0.884050000000     0.778270000000    -0.138956   
N        N      0.033700000000     0.867150000000     0.205130000000    -0.138956   
N        N      0.111700000000     0.740760000000     0.238530000000    -0.138956   
N        N      0.398690000000     0.748240000000     0.746820000000    -0.138956   
N        N      0.200180000000     0.255810000000     0.327830000000    -0.138956   
N        N      0.284620000000     0.252330000000     0.663260000000    -0.138956   
N        N      0.033640000000     0.384050000000     0.278270000000    -0.138956   
N        N      0.466300000000     0.367150000000     0.705130000000    -0.138956   
N        N      0.388300000000     0.240760000000     0.738530000000    -0.138956   
N        N      0.101310000000     0.248240000000     0.246820000000    -0.138956   
O        O      0.516300000000     0.186370000000     0.404570000000    -0.290559   
O        O      0.366440000000     0.000440000000     0.668210000000    -0.290559   
O        O      0.408610000000     0.136140000000     0.349370000000    -0.290559   
O        O      0.073970000000     0.810350000000     0.793540000000    -0.290559   
O        O      0.382450000000     0.509750000000     0.830380000000    -0.290559   
O        O      0.099100000000     0.735300000000     0.697370000000    -0.290559   
O        O      0.527200000000     0.718100000000     0.098910000000    -0.290559   
O        O      0.435000000000     0.651710000000     0.155440000000    -0.290559   
O        O      0.068270000000     0.324000000000     0.725900000000    -0.290559   
O        O      0.107000000000     0.249000000000     0.812100000000    -0.290559   
O        O      0.983700000000     0.686370000000     0.904570000000    -0.290559   
O        O      0.133560000000     0.500440000000     0.168210000000    -0.290559   
O        O      0.091390000000     0.636140000000     0.849370000000    -0.290559   
O        O      0.426030000000     0.310350000000     0.293540000000    -0.290559   
O        O      0.117550000000     0.009750000000     0.330380000000    -0.290559   
O        O      0.400900000000     0.235300000000     0.197370000000    -0.290559   
O        O      0.972800000000     0.218100000000     0.598910000000    -0.290559   
O        O      0.065000000000     0.151710000000     0.655440000000    -0.290559   
O        O      0.431730000000     0.824000000000     0.225900000000    -0.290559   
O        O      0.393000000000     0.749000000000     0.312100000000    -0.290559   
O        O      0.016300000000     0.313630000000     0.095430000000    -0.290559   
O        O      0.866440000000     0.499560000000     0.831790000000    -0.290559   
O        O      0.908610000000     0.363860000000     0.150630000000    -0.290559   
O        O      0.573970000000     0.689650000000     0.706460000000    -0.290559   
O        O      0.882450000000     0.990250000000     0.669620000000    -0.290559   
O        O      0.599100000000     0.764700000000     0.802630000000    -0.290559   
O        O      0.027200000000     0.781900000000     0.401090000000    -0.290559   
O        O      0.935000000000     0.848290000000     0.344560000000    -0.290559   
O        O      0.568270000000     0.176000000000     0.774100000000    -0.290559   
O        O      0.607000000000     0.251000000000     0.687900000000    -0.290559   
O        O      0.483700000000     0.813630000000     0.595430000000    -0.290559   
O        O      0.633560000000     0.999560000000     0.331790000000    -0.290559   
O        O      0.591390000000     0.863860000000     0.650630000000    -0.290559   
O        O      0.926030000000     0.189650000000     0.206460000000    -0.290559   
O        O      0.617550000000     0.490250000000     0.169620000000    -0.290559   
O        O      0.900900000000     0.264700000000     0.302630000000    -0.290559   
O        O      0.472800000000     0.281900000000     0.901090000000    -0.290559   
O        O      0.565000000000     0.348290000000     0.844560000000    -0.290559   
O        O      0.931730000000     0.676000000000     0.274100000000    -0.290559   
O        O      0.893000000000     0.751000000000     0.187900000000    -0.290559   


