data_VONBUW_original

_audit_creation_method RASPA-1.0
_audit_creation_date 2022-1-29
_audit_author_name 'Felipe Lopes de Oliveira <felipe.lopes.oliveira@ibm.com>'

_cell_length_a    11.2894
_cell_length_b    11.2894
_cell_length_c    25.636
_cell_angle_alpha 92.5765
_cell_angle_beta  92.5765
_cell_angle_gamma 101.38
_cell_volume      3195.01

_symmetry_cell_setting          triclinic
_symmetry_space_group_name_Hall 'P 1'
_symmetry_space_group_name_H-M  'P 1'
_symmetry_Int_Tables_number     1

_symmetry_equiv_pos_as_xyz 'x,y,z'

loop_
_atom_site_label
_atom_site_type_symbol
_atom_site_fract_x
_atom_site_fract_y
_atom_site_fract_z
_atom_site_charge
Zn       Zn     0.845860000000     0.182000000000     0.494300000000     0.466073   
Zn       Zn     0.818000000000     0.154140000000     0.005700000000     0.466073   
Zn       Zn     0.154140000000     0.818000000000     0.505700000000     0.466073   
Zn       Zn     0.182000000000     0.845860000000     0.994300000000     0.466073   
H        H      0.097900000000     0.057300000000     0.592800000000     0.0669867  
H        H      0.381800000000     0.633200000000     0.525600000000     0.0669867  
H        H      0.615300000000     0.601900000000     0.682400000000     0.0669867  
H        H      0.706800000000     0.574600000000     0.605100000000     0.0669867  
H        H      0.656900000000     0.560700000000     0.446700000000     0.0669867  
H        H      0.228000000000     0.001400000000     0.655400000000     0.0669867  
H        H      0.686500000000     0.275500000000     0.395500000000     0.0669867  
H        H      0.467200000000     0.973200000000     0.861700000000     0.0669867  
H        H      0.731000000000     0.735200000000     0.535700000000     0.0669867  
H        H      0.177400000000     0.117600000000     0.763600000000     0.0669867  
H        H      0.219100000000     0.404900000000     0.637800000000     0.0669867  
H        H      0.702400000000     0.229800000000     0.635800000000     0.0669867  
H        H      0.133500000000     0.041500000000     0.844100000000     0.0669867  
H        H      0.610200000000     0.255200000000     0.713000000000     0.0669867  
H        H      0.448200000000     0.909400000000     0.421800000000     0.0669867  
H        H      0.345600000000     0.349200000000     0.701500000000     0.0669867  
H        H      0.510800000000     0.047200000000     0.780900000000     0.0669867  
H        H      0.462700000000     0.769900000000     0.464600000000     0.0669867  
H        H      0.552700000000     0.735300000000     0.424600000000     0.0669867  
H        H      0.871700000000     0.928300000000     0.556900000000     0.0669867  
H        H      0.508000000000     0.216600000000     0.347000000000     0.0669867  
H        H      0.382300000000     0.035100000000     0.363500000000     0.0669867  
H        H      0.942700000000     0.902100000000     0.907200000000     0.0669867  
H        H      0.366800000000     0.618200000000     0.974400000000     0.0669867  
H        H      0.398100000000     0.384700000000     0.817600000000     0.0669867  
H        H      0.425400000000     0.293200000000     0.894900000000     0.0669867  
H        H      0.439300000000     0.343100000000     0.053300000000     0.0669867  
H        H      0.998600000000     0.772000000000     0.844600000000     0.0669867  
H        H      0.724500000000     0.313500000000     0.104500000000     0.0669867  
H        H      0.026800000000     0.532800000000     0.638300000000     0.0669867  
H        H      0.264800000000     0.269000000000     0.964300000000     0.0669867  
H        H      0.882400000000     0.822600000000     0.736400000000     0.0669867  
H        H      0.595100000000     0.780900000000     0.862200000000     0.0669867  
H        H      0.770200000000     0.297600000000     0.864200000000     0.0669867  
H        H      0.958500000000     0.866500000000     0.655900000000     0.0669867  
H        H      0.744800000000     0.389800000000     0.787000000000     0.0669867  
H        H      0.090600000000     0.551800000000     0.078200000000     0.0669867  
H        H      0.650800000000     0.654400000000     0.798500000000     0.0669867  
H        H      0.952800000000     0.489200000000     0.719100000000     0.0669867  
H        H      0.230100000000     0.537300000000     0.035400000000     0.0669867  
H        H      0.264700000000     0.447300000000     0.075400000000     0.0669867  
H        H      0.071700000000     0.128300000000     0.943100000000     0.0669867  
H        H      0.783400000000     0.492000000000     0.153000000000     0.0669867  
H        H      0.964900000000     0.617700000000     0.136500000000     0.0669867  
H        H      0.902100000000     0.942700000000     0.407200000000     0.0669867  
H        H      0.618200000000     0.366800000000     0.474400000000     0.0669867  
H        H      0.384700000000     0.398100000000     0.317600000000     0.0669867  
H        H      0.293200000000     0.425400000000     0.394900000000     0.0669867  
H        H      0.343100000000     0.439300000000     0.553300000000     0.0669867  
H        H      0.772000000000     0.998600000000     0.344600000000     0.0669867  
H        H      0.313500000000     0.724500000000     0.604500000000     0.0669867  
H        H      0.532800000000     0.026800000000     0.138300000000     0.0669867  
H        H      0.269000000000     0.264800000000     0.464300000000     0.0669867  
H        H      0.822600000000     0.882400000000     0.236400000000     0.0669867  
H        H      0.780900000000     0.595100000000     0.362200000000     0.0669867  
H        H      0.297600000000     0.770200000000     0.364200000000     0.0669867  
H        H      0.866500000000     0.958500000000     0.155900000000     0.0669867  
H        H      0.389800000000     0.744800000000     0.287000000000     0.0669867  
H        H      0.551800000000     0.090600000000     0.578200000000     0.0669867  
H        H      0.654400000000     0.650800000000     0.298500000000     0.0669867  
H        H      0.489200000000     0.952800000000     0.219100000000     0.0669867  
H        H      0.537300000000     0.230100000000     0.535400000000     0.0669867  
H        H      0.447300000000     0.264700000000     0.575400000000     0.0669867  
H        H      0.128300000000     0.071700000000     0.443100000000     0.0669867  
H        H      0.492000000000     0.783400000000     0.653000000000     0.0669867  
H        H      0.617700000000     0.964900000000     0.636500000000     0.0669867  
H        H      0.057300000000     0.097900000000     0.092800000000     0.0669867  
H        H      0.633200000000     0.381800000000     0.025600000000     0.0669867  
H        H      0.601900000000     0.615300000000     0.182400000000     0.0669867  
H        H      0.574600000000     0.706800000000     0.105100000000     0.0669867  
H        H      0.560700000000     0.656900000000     0.946700000000     0.0669867  
H        H      0.001400000000     0.228000000000     0.155400000000     0.0669867  
H        H      0.275500000000     0.686500000000     0.895500000000     0.0669867  
H        H      0.973200000000     0.467200000000     0.361700000000     0.0669867  
H        H      0.735200000000     0.731000000000     0.035700000000     0.0669867  
H        H      0.117600000000     0.177400000000     0.263600000000     0.0669867  
H        H      0.404900000000     0.219100000000     0.137800000000     0.0669867  
H        H      0.229800000000     0.702400000000     0.135800000000     0.0669867  
H        H      0.041500000000     0.133500000000     0.344100000000     0.0669867  
H        H      0.255200000000     0.610200000000     0.213000000000     0.0669867  
H        H      0.909400000000     0.448200000000     0.921800000000     0.0669867  
H        H      0.349200000000     0.345600000000     0.201500000000     0.0669867  
H        H      0.047200000000     0.510800000000     0.280900000000     0.0669867  
H        H      0.769900000000     0.462700000000     0.964600000000     0.0669867  
H        H      0.735300000000     0.552700000000     0.924600000000     0.0669867  
H        H      0.928300000000     0.871700000000     0.056900000000     0.0669867  
H        H      0.216600000000     0.508000000000     0.847000000000     0.0669867  
H        H      0.035100000000     0.382300000000     0.863500000000     0.0669867  
C        C      0.295380000000     0.000020000000     0.861600000000     0.0142965  
C        C      0.714320000000     0.399480000000     0.612680000000     0.0142965  
C        C      0.348200000000     0.090200000000     0.764950000000     0.0142965  
C        C      0.146150000000     0.236450000000     0.608230000000     0.0142965  
C        C      0.148700000000     0.116500000000     0.614230000000     0.0142965  
C        C      0.429800000000     0.579400000000     0.515050000000     0.0142965  
C        C      0.607090000000     0.021710000000     0.442800000000     0.0142965  
C        C      0.063910000000     0.271090000000     0.566250000000     0.0142965  
C        C      0.633290000000     0.527110000000     0.673080000000     0.0142965  
C        C      0.687830000000     0.510570000000     0.626850000000     0.0142965  
C        C      0.665330000000     0.952250000000     0.479100000000     0.0142965  
C        C      0.605510000000     0.432290000000     0.705320000000     0.0142965  
C        C      0.593200000000     0.536800000000     0.468180000000     0.0142965  
C        C      0.226000000000     0.082600000000     0.651830000000     0.0142965  
C        C      0.637800000000     0.201000000000     0.400880000000     0.0142965  
C        C      0.408740000000     0.002060000000     0.842030000000     0.0142965  
C        C      0.725600000000     0.809600000000     0.522650000000     0.0142965  
C        C      0.299700000000     0.170500000000     0.683620000000     0.0142965  
C        C      0.235500000000     0.088500000000     0.783380000000     0.0142965  
C        C      0.220500000000     0.323500000000     0.641250000000     0.0142965  
C        C      0.684900000000     0.304700000000     0.645240000000     0.0142965  
C        C      0.209800000000     0.043200000000     0.831560000000     0.0142965  
C        C      0.630100000000     0.319500000000     0.691490000000     0.0142965  
C        C      0.496200000000     0.984200000000     0.416070000000     0.0142965  
C        C      0.296700000000     0.290500000000     0.679160000000     0.0142965  
C        C      0.435100000000     0.046500000000     0.793890000000     0.0142965  
C        C      0.776000000000     0.381200000000     0.563220000000     0.0142965  
C        C      0.537800000000     0.741600000000     0.461470000000     0.0142965  
C        C      0.523100000000     0.617100000000     0.482890000000     0.0142965  
C        C      0.803600000000     0.916800000000     0.534050000000     0.0142965  
C        C      0.530800000000     0.167200000000     0.372100000000     0.0142965  
C        C      0.457800000000     0.058400000000     0.381200000000     0.0142965  
C        C      0.264310000000     0.950690000000     0.912990000000     0.0142965  
C        C      0.999980000000     0.704620000000     0.638400000000     0.0142965  
C        C      0.600520000000     0.285680000000     0.887320000000     0.0142965  
C        C      0.909800000000     0.651800000000     0.735050000000     0.0142965  
C        C      0.763550000000     0.853850000000     0.891770000000     0.0142965  
C        C      0.883500000000     0.851300000000     0.885770000000     0.0142965  
C        C      0.420600000000     0.570200000000     0.984950000000     0.0142965  
C        C      0.978290000000     0.392910000000     0.057200000000     0.0142965  
C        C      0.728910000000     0.936090000000     0.933750000000     0.0142965  
C        C      0.472890000000     0.366710000000     0.826920000000     0.0142965  
C        C      0.489430000000     0.312170000000     0.873150000000     0.0142965  
C        C      0.047750000000     0.334670000000     0.020900000000     0.0142965  
C        C      0.567710000000     0.394490000000     0.794680000000     0.0142965  
C        C      0.463200000000     0.406800000000     0.031820000000     0.0142965  
C        C      0.917400000000     0.774000000000     0.848170000000     0.0142965  
C        C      0.799000000000     0.362200000000     0.099120000000     0.0142965  
C        C      0.997940000000     0.591260000000     0.657970000000     0.0142965  
C        C      0.190400000000     0.274400000000     0.977350000000     0.0142965  
C        C      0.829500000000     0.700300000000     0.816380000000     0.0142965  
C        C      0.911500000000     0.764500000000     0.716620000000     0.0142965  
C        C      0.676500000000     0.779500000000     0.858750000000     0.0142965  
C        C      0.695300000000     0.315100000000     0.854760000000     0.0142965  
C        C      0.956800000000     0.790200000000     0.668440000000     0.0142965  
C        C      0.680500000000     0.369900000000     0.808510000000     0.0142965  
C        C      0.015800000000     0.503800000000     0.083930000000     0.0142965  
C        C      0.709500000000     0.703300000000     0.820840000000     0.0142965  
C        C      0.953500000000     0.564900000000     0.706110000000     0.0142965  
C        C      0.618800000000     0.224000000000     0.936780000000     0.0142965  
C        C      0.258400000000     0.462200000000     0.038530000000     0.0142965  
C        C      0.382900000000     0.476900000000     0.017110000000     0.0142965  
C        C      0.083200000000     0.196400000000     0.965950000000     0.0142965  
C        C      0.832800000000     0.469200000000     0.127900000000     0.0142965  
C        C      0.941600000000     0.542200000000     0.118800000000     0.0142965  
C        C      0.049310000000     0.735690000000     0.587010000000     0.0142965  
C        C      0.704620000000     0.999980000000     0.138400000000     0.0142965  
C        C      0.285680000000     0.600520000000     0.387320000000     0.0142965  
C        C      0.651800000000     0.909800000000     0.235050000000     0.0142965  
C        C      0.853850000000     0.763550000000     0.391770000000     0.0142965  
C        C      0.851300000000     0.883500000000     0.385770000000     0.0142965  
C        C      0.570200000000     0.420600000000     0.484950000000     0.0142965  
C        C      0.392910000000     0.978290000000     0.557200000000     0.0142965  
C        C      0.936090000000     0.728910000000     0.433750000000     0.0142965  
C        C      0.366710000000     0.472890000000     0.326920000000     0.0142965  
C        C      0.312170000000     0.489430000000     0.373150000000     0.0142965  
C        C      0.334670000000     0.047750000000     0.520900000000     0.0142965  
C        C      0.394490000000     0.567710000000     0.294680000000     0.0142965  
C        C      0.406800000000     0.463200000000     0.531820000000     0.0142965  
C        C      0.774000000000     0.917400000000     0.348170000000     0.0142965  
C        C      0.362200000000     0.799000000000     0.599120000000     0.0142965  
C        C      0.591260000000     0.997940000000     0.157970000000     0.0142965  
C        C      0.274400000000     0.190400000000     0.477350000000     0.0142965  
C        C      0.700300000000     0.829500000000     0.316380000000     0.0142965  
C        C      0.764500000000     0.911500000000     0.216620000000     0.0142965  
C        C      0.779500000000     0.676500000000     0.358750000000     0.0142965  
C        C      0.315100000000     0.695300000000     0.354760000000     0.0142965  
C        C      0.790200000000     0.956800000000     0.168440000000     0.0142965  
C        C      0.369900000000     0.680500000000     0.308510000000     0.0142965  
C        C      0.503800000000     0.015800000000     0.583930000000     0.0142965  
C        C      0.703300000000     0.709500000000     0.320840000000     0.0142965  
C        C      0.564900000000     0.953500000000     0.206110000000     0.0142965  
C        C      0.224000000000     0.618800000000     0.436780000000     0.0142965  
C        C      0.462200000000     0.258400000000     0.538530000000     0.0142965  
C        C      0.476900000000     0.382900000000     0.517110000000     0.0142965  
C        C      0.196400000000     0.083200000000     0.465950000000     0.0142965  
C        C      0.469200000000     0.832800000000     0.627900000000     0.0142965  
C        C      0.542200000000     0.941600000000     0.618800000000     0.0142965  
C        C      0.735690000000     0.049310000000     0.087010000000     0.0142965  
C        C      0.000020000000     0.295380000000     0.361600000000     0.0142965  
C        C      0.399480000000     0.714320000000     0.112680000000     0.0142965  
C        C      0.090200000000     0.348200000000     0.264950000000     0.0142965  
C        C      0.236450000000     0.146150000000     0.108230000000     0.0142965  
C        C      0.116500000000     0.148700000000     0.114230000000     0.0142965  
C        C      0.579400000000     0.429800000000     0.015050000000     0.0142965  
C        C      0.021710000000     0.607090000000     0.942800000000     0.0142965  
C        C      0.271090000000     0.063910000000     0.066250000000     0.0142965  
C        C      0.527110000000     0.633290000000     0.173080000000     0.0142965  
C        C      0.510570000000     0.687830000000     0.126850000000     0.0142965  
C        C      0.952250000000     0.665330000000     0.979100000000     0.0142965  
C        C      0.432290000000     0.605510000000     0.205320000000     0.0142965  
C        C      0.536800000000     0.593200000000     0.968180000000     0.0142965  
C        C      0.082600000000     0.226000000000     0.151830000000     0.0142965  
C        C      0.201000000000     0.637800000000     0.900880000000     0.0142965  
C        C      0.002060000000     0.408740000000     0.342030000000     0.0142965  
C        C      0.809600000000     0.725600000000     0.022650000000     0.0142965  
C        C      0.170500000000     0.299700000000     0.183620000000     0.0142965  
C        C      0.088500000000     0.235500000000     0.283380000000     0.0142965  
C        C      0.323500000000     0.220500000000     0.141250000000     0.0142965  
C        C      0.304700000000     0.684900000000     0.145240000000     0.0142965  
C        C      0.043200000000     0.209800000000     0.331560000000     0.0142965  
C        C      0.319500000000     0.630100000000     0.191490000000     0.0142965  
C        C      0.984200000000     0.496200000000     0.916070000000     0.0142965  
C        C      0.290500000000     0.296700000000     0.179160000000     0.0142965  
C        C      0.046500000000     0.435100000000     0.293890000000     0.0142965  
C        C      0.381200000000     0.776000000000     0.063220000000     0.0142965  
C        C      0.741600000000     0.537800000000     0.961470000000     0.0142965  
C        C      0.617100000000     0.523100000000     0.982890000000     0.0142965  
C        C      0.916800000000     0.803600000000     0.034050000000     0.0142965  
C        C      0.167200000000     0.530800000000     0.872100000000     0.0142965  
C        C      0.058400000000     0.457800000000     0.881200000000     0.0142965  
C        C      0.950690000000     0.264310000000     0.412990000000     0.0142965  
N        N      0.675790000000     0.131810000000     0.436370000000    -0.130435   
N        N      0.637280000000     0.832420000000     0.488100000000    -0.130435   
N        N      0.766290000000     0.004950000000     0.506690000000    -0.130435   
N        N      0.868190000000     0.324210000000     0.063630000000    -0.130435   
N        N      0.167580000000     0.362720000000     0.011900000000    -0.130435   
N        N      0.995050000000     0.233710000000     0.993310000000    -0.130435   
N        N      0.324210000000     0.868190000000     0.563630000000    -0.130435   
N        N      0.362720000000     0.167580000000     0.511900000000    -0.130435   
N        N      0.233710000000     0.995050000000     0.493310000000    -0.130435   
N        N      0.131810000000     0.675790000000     0.936370000000    -0.130435   
N        N      0.832420000000     0.637280000000     0.988100000000    -0.130435   
N        N      0.004950000000     0.766290000000     0.006690000000    -0.130435   
O        O      0.835960000000     0.472820000000     0.544420000000    -0.269368   
O        O      0.078980000000     0.379040000000     0.555130000000    -0.269368   
O        O      0.385240000000     0.138760000000     0.718390000000    -0.269368   
O        O      0.760050000000     0.273750000000     0.544600000000    -0.269368   
O        O      0.985920000000     0.185180000000     0.545390000000    -0.269368   
O        O      0.341320000000     0.911920000000     0.941310000000    -0.269368   
O        O      0.158280000000     0.943780000000     0.927020000000    -0.269368   
O        O      0.527180000000     0.164040000000     0.955580000000    -0.269368   
O        O      0.620960000000     0.921020000000     0.944870000000    -0.269368   
O        O      0.861240000000     0.614760000000     0.781610000000    -0.269368   
O        O      0.726250000000     0.239950000000     0.955400000000    -0.269368   
O        O      0.814820000000     0.014080000000     0.954610000000    -0.269368   
O        O      0.088080000000     0.658680000000     0.558690000000    -0.269368   
O        O      0.056220000000     0.841720000000     0.572980000000    -0.269368   
O        O      0.164040000000     0.527180000000     0.455580000000    -0.269368   
O        O      0.921020000000     0.620960000000     0.444870000000    -0.269368   
O        O      0.614760000000     0.861240000000     0.281610000000    -0.269368   
O        O      0.239950000000     0.726250000000     0.455400000000    -0.269368   
O        O      0.014080000000     0.814820000000     0.454610000000    -0.269368   
O        O      0.658680000000     0.088080000000     0.058690000000    -0.269368   
O        O      0.841720000000     0.056220000000     0.072980000000    -0.269368   
O        O      0.472820000000     0.835960000000     0.044420000000    -0.269368   
O        O      0.379040000000     0.078980000000     0.055130000000    -0.269368   
O        O      0.138760000000     0.385240000000     0.218390000000    -0.269368   
O        O      0.273750000000     0.760050000000     0.044600000000    -0.269368   
O        O      0.185180000000     0.985920000000     0.045390000000    -0.269368   
O        O      0.911920000000     0.341320000000     0.441310000000    -0.269368   
O        O      0.943780000000     0.158280000000     0.427020000000    -0.269368   
O        O      0.546490000000     0.453510000000     0.750000000000    -0.269368   
O        O      0.453510000000     0.546490000000     0.250000000000    -0.269368   


