data_VUNCAJ_original

_audit_creation_method RASPA-1.0
_audit_creation_date 2022-1-29
_audit_author_name 'Felipe Lopes de Oliveira <felipe.lopes.oliveira@ibm.com>'

_cell_length_a    8.6296
_cell_length_b    9.608
_cell_length_c    14.497
_cell_angle_alpha 90
_cell_angle_beta  93.097
_cell_angle_gamma 90
_cell_volume      1200.24

_symmetry_cell_setting          triclinic
_symmetry_space_group_name_Hall 'P 1'
_symmetry_space_group_name_H-M  'P 1'
_symmetry_Int_Tables_number     1

_symmetry_equiv_pos_as_xyz 'x,y,z'

loop_
_atom_site_label
_atom_site_type_symbol
_atom_site_fract_x
_atom_site_fract_y
_atom_site_fract_z
_atom_site_charge
Zn       Zn     0.656740000000     0.502940000000     0.671690000000     0.417063   
Zn       Zn     0.843260000000     0.002940000000     0.828310000000     0.417063   
Zn       Zn     0.343260000000     0.497060000000     0.328310000000     0.417063   
Zn       Zn     0.156740000000     0.997060000000     0.171690000000     0.417063   
H        H      0.044000000000     0.040400000000     0.591400000000     0.0579657  
H        H      0.161700000000     0.985200000000     0.518200000000     0.0579657  
H        H      0.097700000000     0.184500000000     0.423100000000     0.0579657  
H        H      0.183100000000     0.224700000000     0.520100000000     0.0579657  
H        H      0.715800000000     0.495800000000     0.459700000000     0.0579657  
H        H      0.934400000000     0.266800000000     0.648400000000     0.0579657  
H        H      0.450300000000     0.773400000000     0.451300000000     0.0579657  
H        H      0.456000000000     0.540400000000     0.908600000000     0.0579657  
H        H      0.338300000000     0.485200000000     0.981800000000     0.0579657  
H        H      0.402300000000     0.684500000000     0.076900000000     0.0579657  
H        H      0.316900000000     0.724700000000     0.979900000000     0.0579657  
H        H      0.784200000000     0.995800000000     0.040300000000     0.0579657  
H        H      0.565600000000     0.766800000000     0.851600000000     0.0579657  
H        H      0.049700000000     0.273400000000     0.048700000000     0.0579657  
H        H      0.956000000000     0.959600000000     0.408600000000     0.0579657  
H        H      0.838300000000     0.014800000000     0.481800000000     0.0579657  
H        H      0.902300000000     0.815500000000     0.576900000000     0.0579657  
H        H      0.816900000000     0.775300000000     0.479900000000     0.0579657  
H        H      0.284200000000     0.504200000000     0.540300000000     0.0579657  
H        H      0.065600000000     0.733200000000     0.351600000000     0.0579657  
H        H      0.549700000000     0.226600000000     0.548700000000     0.0579657  
H        H      0.544000000000     0.459600000000     0.091400000000     0.0579657  
H        H      0.661700000000     0.514800000000     0.018200000000     0.0579657  
H        H      0.597700000000     0.315500000000     0.923100000000     0.0579657  
H        H      0.683100000000     0.275300000000     0.020100000000     0.0579657  
H        H      0.215800000000     0.004200000000     0.959700000000     0.0579657  
H        H      0.434400000000     0.233200000000     0.148400000000     0.0579657  
H        H      0.950300000000     0.726600000000     0.951300000000     0.0579657  
C        C      0.064100000000     0.037600000000     0.524800000000     0.0653607  
C        C      0.086200000000     0.186200000000     0.490700000000     0.0653607  
C        C      0.784200000000     0.429400000000     0.488500000000     0.0653607  
C        C      0.900100000000     0.307900000000     0.591300000000     0.0653607  
C        C      0.469500000000     0.866200000000     0.471500000000     0.0653607  
C        C      0.526200000000     0.889100000000     0.561100000000     0.0653607  
C        C      0.560000000000     0.025300000000     0.589700000000     0.0653607  
C        C      0.542400000000     0.767600000000     0.626600000000     0.0653607  
C        C      0.638300000000     0.056000000000     0.683100000000     0.0653607  
C        C      0.435900000000     0.537600000000     0.975200000000     0.0653607  
C        C      0.413800000000     0.686200000000     0.009300000000     0.0653607  
C        C      0.715800000000     0.929400000000     0.011500000000     0.0653607  
C        C      0.599900000000     0.807900000000     0.908700000000     0.0653607  
C        C      0.030500000000     0.366200000000     0.028500000000     0.0653607  
C        C      0.973800000000     0.389100000000     0.938900000000     0.0653607  
C        C      0.940000000000     0.525300000000     0.910300000000     0.0653607  
C        C      0.957600000000     0.267600000000     0.873400000000     0.0653607  
C        C      0.861700000000     0.556000000000     0.816900000000     0.0653607  
C        C      0.935900000000     0.962400000000     0.475200000000     0.0653607  
C        C      0.913800000000     0.813800000000     0.509300000000     0.0653607  
C        C      0.215800000000     0.570600000000     0.511500000000     0.0653607  
C        C      0.099900000000     0.692100000000     0.408700000000     0.0653607  
C        C      0.530500000000     0.133800000000     0.528500000000     0.0653607  
C        C      0.473800000000     0.110900000000     0.438900000000     0.0653607  
C        C      0.440000000000     0.974700000000     0.410300000000     0.0653607  
C        C      0.457600000000     0.232400000000     0.373400000000     0.0653607  
C        C      0.361700000000     0.944000000000     0.316900000000     0.0653607  
C        C      0.564100000000     0.462400000000     0.024800000000     0.0653607  
C        C      0.586200000000     0.313800000000     0.990700000000     0.0653607  
C        C      0.284200000000     0.070600000000     0.988500000000     0.0653607  
C        C      0.400100000000     0.192100000000     0.091300000000     0.0653607  
C        C      0.969500000000     0.633800000000     0.971500000000     0.0653607  
C        C      0.026200000000     0.610900000000     0.061100000000     0.0653607  
C        C      0.060000000000     0.474700000000     0.089700000000     0.0653607  
C        C      0.042400000000     0.732400000000     0.126600000000     0.0653607  
C        C      0.138300000000     0.444000000000     0.183100000000     0.0653607  
N        N      0.955200000000     0.278600000000     0.511100000000    -0.112875   
N        N      0.880600000000     0.355600000000     0.442900000000    -0.112875   
N        N      0.789400000000     0.403700000000     0.581000000000    -0.112875   
N        N      0.544800000000     0.778600000000     0.988900000000    -0.112875   
N        N      0.619400000000     0.855600000000     0.057100000000    -0.112875   
N        N      0.710600000000     0.903700000000     0.919000000000    -0.112875   
N        N      0.044800000000     0.721400000000     0.488900000000    -0.112875   
N        N      0.119400000000     0.644400000000     0.557100000000    -0.112875   
N        N      0.210600000000     0.596300000000     0.419000000000    -0.112875   
N        N      0.455200000000     0.221400000000     0.011100000000    -0.112875   
N        N      0.380600000000     0.144400000000     0.942900000000    -0.112875   
N        N      0.289400000000     0.096300000000     0.081000000000    -0.112875   
O        O      0.605800000000     0.660800000000     0.592900000000    -0.268111   
O        O      0.493000000000     0.775200000000     0.704600000000    -0.268111   
O        O      0.758100000000     0.982400000000     0.703200000000    -0.268111   
O        O      0.591000000000     0.149300000000     0.733300000000    -0.268111   
O        O      0.894200000000     0.160800000000     0.907100000000    -0.268111   
O        O      0.007000000000     0.275200000000     0.795400000000    -0.268111   
O        O      0.741900000000     0.482400000000     0.796800000000    -0.268111   
O        O      0.909000000000     0.649300000000     0.766700000000    -0.268111   
O        O      0.394200000000     0.339200000000     0.407100000000    -0.268111   
O        O      0.507000000000     0.224800000000     0.295400000000    -0.268111   
O        O      0.241900000000     0.017600000000     0.296800000000    -0.268111   
O        O      0.409000000000     0.850700000000     0.266700000000    -0.268111   
O        O      0.105800000000     0.839200000000     0.092900000000    -0.268111   
O        O      0.993000000000     0.724800000000     0.204600000000    -0.268111   
O        O      0.258100000000     0.517600000000     0.203200000000    -0.268111   
O        O      0.091000000000     0.350700000000     0.233300000000    -0.268111   


