data_VUSJUP_original

_audit_creation_method RASPA-1.0
_audit_creation_date 2022-1-28
_audit_author_name 'Felipe Lopes de Oliveira <felipe.lopes.oliveira@ibm.com>'

_cell_length_a    18.101
_cell_length_b    18.101
_cell_length_c    18.101
_cell_angle_alpha 60.0036
_cell_angle_beta  60.0036
_cell_angle_gamma 60.0001
_cell_volume      4193.89

_symmetry_cell_setting          triclinic
_symmetry_space_group_name_Hall 'P 1'
_symmetry_space_group_name_H-M  'P 1'
_symmetry_Int_Tables_number     1

_symmetry_equiv_pos_as_xyz 'x,y,z'

loop_
_atom_site_label
_atom_site_type_symbol
_atom_site_fract_x
_atom_site_fract_y
_atom_site_fract_z
_atom_site_charge
Zn       Zn     0.118650000000     0.293850000000     0.293800000000     0.483337   
Zn       Zn     0.706150000000     0.881350000000     0.706200000000     0.483337   
Zn       Zn     0.881350000000     0.706150000000     0.706200000000     0.483337   
Zn       Zn     0.293850000000     0.118650000000     0.293800000000     0.483337   
Zn       Zn     0.293920000000     0.293920000000     0.118410000000     0.483337   
Zn       Zn     0.293670000000     0.293670000000     0.293930000000     0.483337   
Zn       Zn     0.706080000000     0.706080000000     0.881590000000     0.483337   
Zn       Zn     0.706330000000     0.706330000000     0.706070000000     0.483337   
H        H      0.154800000000     0.452000000000     0.933600000000     0.0698708  
H        H      0.932800000000     0.450400000000     0.156200000000     0.0698708  
H        H      0.930800000000     0.156200000000     0.449500000000     0.0698708  
H        H      0.548000000000     0.845200000000     0.066400000000     0.0698708  
H        H      0.549600000000     0.067200000000     0.843800000000     0.0698708  
H        H      0.843800000000     0.069200000000     0.550500000000     0.0698708  
H        H      0.845200000000     0.548000000000     0.066400000000     0.0698708  
H        H      0.067200000000     0.549600000000     0.843800000000     0.0698708  
H        H      0.069200000000     0.843800000000     0.550500000000     0.0698708  
H        H      0.452000000000     0.154800000000     0.933600000000     0.0698708  
H        H      0.450400000000     0.932800000000     0.156200000000     0.0698708  
H        H      0.156200000000     0.930800000000     0.449500000000     0.0698708  
C        C      0.121600000000     0.382800000000     0.113900000000     0.111317   
C        C      0.051700000000     0.447900000000     0.054100000000     0.111317   
C        C      0.090800000000     0.473600000000     0.960200000000     0.111317   
C        C      0.960100000000     0.472100000000     0.092400000000     0.111317   
C        C      0.118000000000     0.382200000000     0.382000000000     0.111317   
C        C      0.957100000000     0.092500000000     0.473400000000     0.111317   
C        C      0.617200000000     0.878400000000     0.886100000000     0.111317   
C        C      0.552100000000     0.948300000000     0.945900000000     0.111317   
C        C      0.526400000000     0.909200000000     0.039800000000     0.111317   
C        C      0.527900000000     0.039900000000     0.907600000000     0.111317   
C        C      0.617800000000     0.882000000000     0.618000000000     0.111317   
C        C      0.907500000000     0.042900000000     0.526600000000     0.111317   
C        C      0.878400000000     0.617200000000     0.886100000000     0.111317   
C        C      0.948300000000     0.552100000000     0.945900000000     0.111317   
C        C      0.909200000000     0.526400000000     0.039800000000     0.111317   
C        C      0.039900000000     0.527900000000     0.907600000000     0.111317   
C        C      0.882000000000     0.617800000000     0.618000000000     0.111317   
C        C      0.042900000000     0.907500000000     0.526600000000     0.111317   
C        C      0.382800000000     0.121600000000     0.113900000000     0.111317   
C        C      0.447900000000     0.051700000000     0.054100000000     0.111317   
C        C      0.473600000000     0.090800000000     0.960200000000     0.111317   
C        C      0.472100000000     0.960100000000     0.092400000000     0.111317   
C        C      0.382200000000     0.118000000000     0.382000000000     0.111317   
C        C      0.092500000000     0.957100000000     0.473400000000     0.111317   
C        C      0.383100000000     0.383100000000     0.114000000000     0.111317   
C        C      0.116900000000     0.116900000000     0.381100000000     0.111317   
C        C      0.051500000000     0.051500000000     0.450500000000     0.111317   
C        C      0.616900000000     0.616900000000     0.886000000000     0.111317   
C        C      0.883100000000     0.883100000000     0.618900000000     0.111317   
C        C      0.948500000000     0.948500000000     0.549500000000     0.111317   
O        O      0.199800000000     0.366400000000     0.069700000000    -0.30941    
O        O      0.069400000000     0.367200000000     0.197300000000    -0.30941    
O        O      0.199600000000     0.366600000000     0.365600000000    -0.30941    
O        O      0.068000000000     0.366800000000     0.365700000000    -0.30941    
O        O      0.068300000000     0.199100000000     0.367300000000    -0.30941    
O        O      0.633600000000     0.800200000000     0.930300000000    -0.30941    
O        O      0.632800000000     0.930600000000     0.802700000000    -0.30941    
O        O      0.633400000000     0.800400000000     0.634400000000    -0.30941    
O        O      0.633200000000     0.932000000000     0.634300000000    -0.30941    
O        O      0.800900000000     0.931700000000     0.632700000000    -0.30941    
O        O      0.800200000000     0.633600000000     0.930300000000    -0.30941    
O        O      0.930600000000     0.632800000000     0.802700000000    -0.30941    
O        O      0.800400000000     0.633400000000     0.634400000000    -0.30941    
O        O      0.932000000000     0.633200000000     0.634300000000    -0.30941    
O        O      0.931700000000     0.800900000000     0.632700000000    -0.30941    
O        O      0.366400000000     0.199800000000     0.069700000000    -0.30941    
O        O      0.367200000000     0.069400000000     0.197300000000    -0.30941    
O        O      0.366600000000     0.199600000000     0.365600000000    -0.30941    
O        O      0.366800000000     0.068000000000     0.365700000000    -0.30941    
O        O      0.199100000000     0.068300000000     0.367300000000    -0.30941    
O        O      0.248700000000     0.248700000000     0.251200000000    -0.30941    
O        O      0.366300000000     0.366300000000     0.068200000000    -0.30941    
O        O      0.366200000000     0.366200000000     0.199100000000    -0.30941    
O        O      0.751300000000     0.751300000000     0.748800000000    -0.30941    
O        O      0.633700000000     0.633700000000     0.931800000000    -0.30941    
O        O      0.633800000000     0.633800000000     0.800900000000    -0.30941    


