data_VUSKAW_original

_audit_creation_method RASPA-1.0
_audit_creation_date 2022-1-30
_audit_author_name 'Felipe Lopes de Oliveira <felipe.lopes.oliveira@ibm.com>'

_cell_length_a    18.2519
_cell_length_b    18.2519
_cell_length_c    18.252
_cell_angle_alpha 60.0037
_cell_angle_beta  60.0037
_cell_angle_gamma 60.0005
_cell_volume      4299.69

_symmetry_cell_setting          triclinic
_symmetry_space_group_name_Hall 'P 1'
_symmetry_space_group_name_H-M  'P 1'
_symmetry_Int_Tables_number     1

_symmetry_equiv_pos_as_xyz 'x,y,z'

loop_
_atom_site_label
_atom_site_type_symbol
_atom_site_fract_x
_atom_site_fract_y
_atom_site_fract_z
_atom_site_charge
Zn       Zn     0.880880000000     0.706520000000     0.206310000000     0.468954   
Zn       Zn     0.293480000000     0.119120000000     0.793690000000     0.468954   
Zn       Zn     0.119120000000     0.293480000000     0.793690000000     0.468954   
Zn       Zn     0.706520000000     0.880880000000     0.206310000000     0.468954   
Zn       Zn     0.706330000000     0.706330000000     0.380800000000     0.468954   
Zn       Zn     0.706450000000     0.706450000000     0.206100000000     0.468954   
Zn       Zn     0.293670000000     0.293670000000     0.619200000000     0.468954   
Zn       Zn     0.293550000000     0.293550000000     0.793900000000     0.468954   
H        H      0.543800000000     0.063800000000     0.347700000000     0.0625201  
H        H      0.540700000000     0.847700000000     0.561600000000     0.0625201  
H        H      0.547400000000     0.061800000000     0.045200000000     0.0625201  
H        H      0.546900000000     0.846500000000     0.039900000000     0.0625201  
H        H      0.062900000000     0.847100000000     0.047000000000     0.0625201  
H        H      0.936200000000     0.456200000000     0.652300000000     0.0625201  
H        H      0.152300000000     0.459300000000     0.438400000000     0.0625201  
H        H      0.938200000000     0.452600000000     0.954800000000     0.0625201  
H        H      0.153500000000     0.453100000000     0.960100000000     0.0625201  
H        H      0.152900000000     0.937100000000     0.953000000000     0.0625201  
H        H      0.456200000000     0.936200000000     0.652300000000     0.0625201  
H        H      0.459300000000     0.152300000000     0.438400000000     0.0625201  
H        H      0.452600000000     0.938200000000     0.954800000000     0.0625201  
H        H      0.453100000000     0.153500000000     0.960100000000     0.0625201  
H        H      0.937100000000     0.152900000000     0.953000000000     0.0625201  
H        H      0.063800000000     0.543800000000     0.347700000000     0.0625201  
H        H      0.847700000000     0.540700000000     0.561600000000     0.0625201  
H        H      0.061800000000     0.547400000000     0.045200000000     0.0625201  
H        H      0.846500000000     0.546900000000     0.039900000000     0.0625201  
H        H      0.847100000000     0.062900000000     0.047000000000     0.0625201  
H        H      0.545100000000     0.545100000000     0.347000000000     0.0625201  
H        H      0.542400000000     0.542400000000     0.565500000000     0.0625201  
H        H      0.454900000000     0.454900000000     0.653000000000     0.0625201  
H        H      0.457600000000     0.457600000000     0.434500000000     0.0625201  
C        C      0.611800000000     0.890600000000     0.386400000000     0.0551358  
C        C      0.553000000000     0.947600000000     0.446800000000     0.0551358  
C        C      0.526900000000     0.037300000000     0.410000000000     0.0551358  
C        C      0.525100000000     0.909900000000     0.536000000000     0.0551358  
C        C      0.612200000000     0.889400000000     0.109800000000     0.0551358  
C        C      0.556300000000     0.945100000000     0.052900000000     0.0551358  
C        C      0.528500000000     0.036100000000     0.027700000000     0.0551358  
C        C      0.528100000000     0.908500000000     0.024300000000     0.0551358  
C        C      0.036600000000     0.909200000000     0.027500000000     0.0551358  
C        C      0.109400000000     0.388200000000     0.613600000000     0.0551358  
C        C      0.052400000000     0.447000000000     0.553200000000     0.0551358  
C        C      0.962700000000     0.473100000000     0.590000000000     0.0551358  
C        C      0.090100000000     0.474900000000     0.464000000000     0.0551358  
C        C      0.110600000000     0.387800000000     0.890200000000     0.0551358  
C        C      0.054900000000     0.443700000000     0.947100000000     0.0551358  
C        C      0.963900000000     0.471500000000     0.972300000000     0.0551358  
C        C      0.091500000000     0.471900000000     0.975700000000     0.0551358  
C        C      0.090800000000     0.963400000000     0.972500000000     0.0551358  
C        C      0.388200000000     0.109400000000     0.613600000000     0.0551358  
C        C      0.447000000000     0.052400000000     0.553200000000     0.0551358  
C        C      0.473100000000     0.962700000000     0.590000000000     0.0551358  
C        C      0.474900000000     0.090100000000     0.464000000000     0.0551358  
C        C      0.387800000000     0.110600000000     0.890200000000     0.0551358  
C        C      0.443700000000     0.054900000000     0.947100000000     0.0551358  
C        C      0.471500000000     0.963900000000     0.972300000000     0.0551358  
C        C      0.471900000000     0.091500000000     0.975700000000     0.0551358  
C        C      0.963400000000     0.090800000000     0.972500000000     0.0551358  
C        C      0.890600000000     0.611800000000     0.386400000000     0.0551358  
C        C      0.947600000000     0.553000000000     0.446800000000     0.0551358  
C        C      0.037300000000     0.526900000000     0.410000000000     0.0551358  
C        C      0.909900000000     0.525100000000     0.536000000000     0.0551358  
C        C      0.889400000000     0.612200000000     0.109800000000     0.0551358  
C        C      0.945100000000     0.556300000000     0.052900000000     0.0551358  
C        C      0.036100000000     0.528500000000     0.027700000000     0.0551358  
C        C      0.908500000000     0.528100000000     0.024300000000     0.0551358  
C        C      0.909200000000     0.036600000000     0.027500000000     0.0551358  
C        C      0.610100000000     0.610100000000     0.393000000000     0.0551358  
C        C      0.554000000000     0.554000000000     0.446000000000     0.0551358  
C        C      0.527400000000     0.527400000000     0.409000000000     0.0551358  
C        C      0.525000000000     0.525000000000     0.538000000000     0.0551358  
C        C      0.886500000000     0.886500000000     0.115000000000     0.0551358  
C        C      0.946700000000     0.946700000000     0.053000000000     0.0551358  
C        C      0.389900000000     0.389900000000     0.607000000000     0.0551358  
C        C      0.446000000000     0.446000000000     0.554000000000     0.0551358  
C        C      0.472600000000     0.472600000000     0.591000000000     0.0551358  
C        C      0.475000000000     0.475000000000     0.462000000000     0.0551358  
C        C      0.113500000000     0.113500000000     0.885000000000     0.0551358  
C        C      0.053300000000     0.053300000000     0.947000000000     0.0551358  
O        O      0.631900000000     0.804900000000     0.429900000000    -0.303793   
O        O      0.634300000000     0.931100000000     0.303700000000    -0.303793   
O        O      0.631600000000     0.803800000000     0.135100000000    -0.303793   
O        O      0.633800000000     0.929600000000     0.132300000000    -0.303793   
O        O      0.928900000000     0.803500000000     0.134600000000    -0.303793   
O        O      0.195100000000     0.368100000000     0.570100000000    -0.303793   
O        O      0.068900000000     0.365700000000     0.696300000000    -0.303793   
O        O      0.196200000000     0.368400000000     0.864900000000    -0.303793   
O        O      0.070400000000     0.366200000000     0.867700000000    -0.303793   
O        O      0.196500000000     0.071100000000     0.865400000000    -0.303793   
O        O      0.368100000000     0.195100000000     0.570100000000    -0.303793   
O        O      0.365700000000     0.068900000000     0.696300000000    -0.303793   
O        O      0.368400000000     0.196200000000     0.864900000000    -0.303793   
O        O      0.366200000000     0.070400000000     0.867700000000    -0.303793   
O        O      0.071100000000     0.196500000000     0.865400000000    -0.303793   
O        O      0.804900000000     0.631900000000     0.429900000000    -0.303793   
O        O      0.931100000000     0.634300000000     0.303700000000    -0.303793   
O        O      0.803800000000     0.631600000000     0.135100000000    -0.303793   
O        O      0.929600000000     0.633800000000     0.132300000000    -0.303793   
O        O      0.803500000000     0.928900000000     0.134600000000    -0.303793   
O        O      0.749900000000     0.749900000000     0.250200000000    -0.303793   
O        O      0.633300000000     0.633300000000     0.428900000000    -0.303793   
O        O      0.631700000000     0.631700000000     0.308400000000    -0.303793   
O        O      0.250100000000     0.250100000000     0.749800000000    -0.303793   
O        O      0.366700000000     0.366700000000     0.571100000000    -0.303793   
O        O      0.368300000000     0.368300000000     0.691600000000    -0.303793   


