data_WALBOC_original

_audit_creation_method RASPA-1.0
_audit_creation_date 2022-1-29
_audit_author_name 'Felipe Lopes de Oliveira <felipe.lopes.oliveira@ibm.com>'

_cell_length_a    12.9305
_cell_length_b    13.7961
_cell_length_c    16.8295
_cell_angle_alpha 90
_cell_angle_beta  90
_cell_angle_gamma 90
_cell_volume      3002.22

_symmetry_cell_setting          triclinic
_symmetry_space_group_name_Hall 'P 1'
_symmetry_space_group_name_H-M  'P 1'
_symmetry_Int_Tables_number     1

_symmetry_equiv_pos_as_xyz 'x,y,z'

loop_
_atom_site_label
_atom_site_type_symbol
_atom_site_fract_x
_atom_site_fract_y
_atom_site_fract_z
_atom_site_charge
Zn       Zn     0.475690000000     0.407300000000     0.423900000000     0.389983   
Zn       Zn     0.427070000000     0.477930000000     0.096490000000     0.389983   
Zn       Zn     0.524310000000     0.092700000000     0.923900000000     0.389983   
Zn       Zn     0.572930000000     0.022070000000     0.596490000000     0.389983   
Zn       Zn     0.975690000000     0.592700000000     0.076100000000     0.389983   
Zn       Zn     0.927070000000     0.522070000000     0.403510000000     0.389983   
Zn       Zn     0.024310000000     0.907300000000     0.576100000000     0.389983   
Zn       Zn     0.072930000000     0.977930000000     0.903510000000     0.389983   
Zn       Zn     0.524310000000     0.592700000000     0.576100000000     0.389983   
Zn       Zn     0.572930000000     0.522070000000     0.903510000000     0.389983   
Zn       Zn     0.475690000000     0.907300000000     0.076100000000     0.389983   
Zn       Zn     0.427070000000     0.977930000000     0.403510000000     0.389983   
Zn       Zn     0.024310000000     0.407300000000     0.923900000000     0.389983   
Zn       Zn     0.072930000000     0.477930000000     0.596490000000     0.389983   
Zn       Zn     0.975690000000     0.092700000000     0.423900000000     0.389983   
Zn       Zn     0.927070000000     0.022070000000     0.096490000000     0.389983   
H        H      0.248300000000     0.362600000000     0.500400000000     0.124366   
H        H      0.444800000000     0.195000000000     0.352800000000     0.124366   
H        H      0.327800000000     0.670100000000     0.644600000000     0.124366   
H        H      0.218800000000     0.632700000000     0.660500000000     0.124366   
H        H      0.588700000000     0.237900000000     0.625200000000     0.124366   
H        H      0.564500000000     0.333600000000     0.584000000000     0.124366   
H        H      0.751700000000     0.137400000000     0.000400000000     0.124366   
H        H      0.555200000000     0.305000000000     0.852800000000     0.124366   
H        H      0.672200000000     0.829900000000     0.144600000000     0.124366   
H        H      0.781200000000     0.867300000000     0.160500000000     0.124366   
H        H      0.411300000000     0.262100000000     0.125200000000     0.124366   
H        H      0.435500000000     0.166400000000     0.084000000000     0.124366   
H        H      0.748300000000     0.637400000000     0.999600000000     0.124366   
H        H      0.944800000000     0.805000000000     0.147200000000     0.124366   
H        H      0.827800000000     0.329900000000     0.855400000000     0.124366   
H        H      0.718800000000     0.367300000000     0.839500000000     0.124366   
H        H      0.088700000000     0.762100000000     0.874800000000     0.124366   
H        H      0.064500000000     0.666400000000     0.916000000000     0.124366   
H        H      0.251700000000     0.862600000000     0.499600000000     0.124366   
H        H      0.055200000000     0.695000000000     0.647200000000     0.124366   
H        H      0.172200000000     0.170100000000     0.355400000000     0.124366   
H        H      0.281200000000     0.132700000000     0.339500000000     0.124366   
H        H      0.911300000000     0.737900000000     0.374800000000     0.124366   
H        H      0.935500000000     0.833600000000     0.416000000000     0.124366   
H        H      0.751700000000     0.637400000000     0.499600000000     0.124366   
H        H      0.555200000000     0.805000000000     0.647200000000     0.124366   
H        H      0.672200000000     0.329900000000     0.355400000000     0.124366   
H        H      0.781200000000     0.367300000000     0.339500000000     0.124366   
H        H      0.411300000000     0.762100000000     0.374800000000     0.124366   
H        H      0.435500000000     0.666400000000     0.416000000000     0.124366   
H        H      0.248300000000     0.862600000000     0.999600000000     0.124366   
H        H      0.444800000000     0.695000000000     0.147200000000     0.124366   
H        H      0.327800000000     0.170100000000     0.855400000000     0.124366   
H        H      0.218800000000     0.132700000000     0.839500000000     0.124366   
H        H      0.588700000000     0.737900000000     0.874800000000     0.124366   
H        H      0.564500000000     0.833600000000     0.916000000000     0.124366   
H        H      0.251700000000     0.362600000000     0.000400000000     0.124366   
H        H      0.055200000000     0.195000000000     0.852800000000     0.124366   
H        H      0.172200000000     0.670100000000     0.144600000000     0.124366   
H        H      0.281200000000     0.632700000000     0.160500000000     0.124366   
H        H      0.911300000000     0.237900000000     0.125200000000     0.124366   
H        H      0.935500000000     0.333600000000     0.084000000000     0.124366   
H        H      0.748300000000     0.137400000000     0.500400000000     0.124366   
H        H      0.944800000000     0.305000000000     0.352800000000     0.124366   
H        H      0.827800000000     0.829900000000     0.644600000000     0.124366   
H        H      0.718800000000     0.867300000000     0.660500000000     0.124366   
H        H      0.088700000000     0.262100000000     0.625200000000     0.124366   
H        H      0.064500000000     0.166400000000     0.584000000000     0.124366   
C        C      0.423100000000     0.506200000000     0.277200000000     0.18945    
C        C      0.473700000000     0.408700000000     0.253200000000     0.18945    
C        C      0.298400000000     0.547500000000     0.589800000000     0.18945    
C        C      0.278000000000     0.419100000000     0.523200000000     0.18945    
C        C      0.527600000000     0.221200000000     0.520900000000     0.18945    
C        C      0.470600000000     0.188000000000     0.405300000000     0.18945    
C        C      0.576900000000     0.993800000000     0.777200000000     0.18945    
C        C      0.526300000000     0.091300000000     0.753200000000     0.18945    
C        C      0.701600000000     0.952500000000     0.089800000000     0.18945    
C        C      0.722000000000     0.080900000000     0.023200000000     0.18945    
C        C      0.472400000000     0.278800000000     0.020900000000     0.18945    
C        C      0.529400000000     0.312000000000     0.905300000000     0.18945    
C        C      0.923100000000     0.493800000000     0.222800000000     0.18945    
C        C      0.973700000000     0.591300000000     0.246800000000     0.18945    
C        C      0.798400000000     0.452500000000     0.910200000000     0.18945    
C        C      0.778000000000     0.580900000000     0.976800000000     0.18945    
C        C      0.027600000000     0.778800000000     0.979100000000     0.18945    
C        C      0.970600000000     0.812000000000     0.094700000000     0.18945    
C        C      0.076900000000     0.006200000000     0.722800000000     0.18945    
C        C      0.026300000000     0.908700000000     0.746800000000     0.18945    
C        C      0.201600000000     0.047500000000     0.410200000000     0.18945    
C        C      0.222000000000     0.919100000000     0.476800000000     0.18945    
C        C      0.972400000000     0.721200000000     0.479100000000     0.18945    
C        C      0.029400000000     0.688000000000     0.594700000000     0.18945    
C        C      0.576900000000     0.493800000000     0.722800000000     0.18945    
C        C      0.526300000000     0.591300000000     0.746800000000     0.18945    
C        C      0.701600000000     0.452500000000     0.410200000000     0.18945    
C        C      0.722000000000     0.580900000000     0.476800000000     0.18945    
C        C      0.472400000000     0.778800000000     0.479100000000     0.18945    
C        C      0.529400000000     0.812000000000     0.594700000000     0.18945    
C        C      0.423100000000     0.006200000000     0.222800000000     0.18945    
C        C      0.473700000000     0.908700000000     0.246800000000     0.18945    
C        C      0.298400000000     0.047500000000     0.910200000000     0.18945    
C        C      0.278000000000     0.919100000000     0.976800000000     0.18945    
C        C      0.527600000000     0.721200000000     0.979100000000     0.18945    
C        C      0.470600000000     0.688000000000     0.094700000000     0.18945    
C        C      0.076900000000     0.506200000000     0.777200000000     0.18945    
C        C      0.026300000000     0.408700000000     0.753200000000     0.18945    
C        C      0.201600000000     0.547500000000     0.089800000000     0.18945    
C        C      0.222000000000     0.419100000000     0.023200000000     0.18945    
C        C      0.972400000000     0.221200000000     0.020900000000     0.18945    
C        C      0.029400000000     0.188000000000     0.905300000000     0.18945    
C        C      0.923100000000     0.993800000000     0.277200000000     0.18945    
C        C      0.973700000000     0.091300000000     0.253200000000     0.18945    
C        C      0.798400000000     0.952500000000     0.589800000000     0.18945    
C        C      0.778000000000     0.080900000000     0.523200000000     0.18945    
C        C      0.027600000000     0.278800000000     0.520900000000     0.18945    
C        C      0.970600000000     0.312000000000     0.405300000000     0.18945    
N        N      0.225600000000     0.478500000000     0.573500000000    -0.202155   
N        N      0.372300000000     0.446700000000     0.509300000000    -0.202155   
N        N      0.386400000000     0.531700000000     0.552800000000    -0.202155   
N        N      0.279400000000     0.626100000000     0.637300000000    -0.202155   
N        N      0.487100000000     0.104000000000     0.439600000000    -0.202155   
N        N      0.524400000000     0.123600000000     0.515300000000    -0.202155   
N        N      0.494200000000     0.263200000000     0.452800000000    -0.202155   
N        N      0.564500000000     0.269800000000     0.583900000000    -0.202155   
N        N      0.774400000000     0.021500000000     0.073500000000    -0.202155   
N        N      0.627700000000     0.053300000000     0.009300000000    -0.202155   
N        N      0.613600000000     0.968300000000     0.052800000000    -0.202155   
N        N      0.720600000000     0.873900000000     0.137300000000    -0.202155   
N        N      0.512900000000     0.396000000000     0.939600000000    -0.202155   
N        N      0.475600000000     0.376400000000     0.015300000000    -0.202155   
N        N      0.505800000000     0.236800000000     0.952800000000    -0.202155   
N        N      0.435500000000     0.230200000000     0.083900000000    -0.202155   
N        N      0.725600000000     0.521500000000     0.926500000000    -0.202155   
N        N      0.872300000000     0.553300000000     0.990700000000    -0.202155   
N        N      0.886400000000     0.468300000000     0.947200000000    -0.202155   
N        N      0.779400000000     0.373900000000     0.862700000000    -0.202155   
N        N      0.987100000000     0.896000000000     0.060400000000    -0.202155   
N        N      0.024400000000     0.876400000000     0.984700000000    -0.202155   
N        N      0.994200000000     0.736800000000     0.047200000000    -0.202155   
N        N      0.064500000000     0.730200000000     0.916100000000    -0.202155   
N        N      0.274400000000     0.978500000000     0.426500000000    -0.202155   
N        N      0.127700000000     0.946700000000     0.490700000000    -0.202155   
N        N      0.113600000000     0.031700000000     0.447200000000    -0.202155   
N        N      0.220600000000     0.126100000000     0.362700000000    -0.202155   
N        N      0.012900000000     0.604000000000     0.560400000000    -0.202155   
N        N      0.975600000000     0.623600000000     0.484700000000    -0.202155   
N        N      0.005800000000     0.763200000000     0.547200000000    -0.202155   
N        N      0.935500000000     0.769800000000     0.416100000000    -0.202155   
N        N      0.774400000000     0.521500000000     0.426500000000    -0.202155   
N        N      0.627700000000     0.553300000000     0.490700000000    -0.202155   
N        N      0.613600000000     0.468300000000     0.447200000000    -0.202155   
N        N      0.720600000000     0.373900000000     0.362700000000    -0.202155   
N        N      0.512900000000     0.896000000000     0.560400000000    -0.202155   
N        N      0.475600000000     0.876400000000     0.484700000000    -0.202155   
N        N      0.505800000000     0.736800000000     0.547200000000    -0.202155   
N        N      0.435500000000     0.730200000000     0.416100000000    -0.202155   
N        N      0.225600000000     0.978500000000     0.926500000000    -0.202155   
N        N      0.372300000000     0.946700000000     0.990700000000    -0.202155   
N        N      0.386400000000     0.031700000000     0.947200000000    -0.202155   
N        N      0.279400000000     0.126100000000     0.862700000000    -0.202155   
N        N      0.487100000000     0.604000000000     0.060400000000    -0.202155   
N        N      0.524400000000     0.623600000000     0.984700000000    -0.202155   
N        N      0.494200000000     0.763200000000     0.047200000000    -0.202155   
N        N      0.564500000000     0.769800000000     0.916100000000    -0.202155   
N        N      0.274400000000     0.478500000000     0.073500000000    -0.202155   
N        N      0.127700000000     0.446700000000     0.009300000000    -0.202155   
N        N      0.113600000000     0.531700000000     0.052800000000    -0.202155   
N        N      0.220600000000     0.626100000000     0.137300000000    -0.202155   
N        N      0.012900000000     0.104000000000     0.939600000000    -0.202155   
N        N      0.975600000000     0.123600000000     0.015300000000    -0.202155   
N        N      0.005800000000     0.263200000000     0.952800000000    -0.202155   
N        N      0.935500000000     0.269800000000     0.083900000000    -0.202155   
N        N      0.725600000000     0.021500000000     0.573500000000    -0.202155   
N        N      0.872300000000     0.053300000000     0.509300000000    -0.202155   
N        N      0.886400000000     0.968300000000     0.552800000000    -0.202155   
N        N      0.779400000000     0.873900000000     0.637300000000    -0.202155   
N        N      0.987100000000     0.396000000000     0.439600000000    -0.202155   
N        N      0.024400000000     0.376400000000     0.515300000000    -0.202155   
N        N      0.994200000000     0.236800000000     0.452800000000    -0.202155   
N        N      0.064500000000     0.230200000000     0.583900000000    -0.202155   
O        O      0.484400000000     0.391100000000     0.181500000000    -0.261406   
O        O      0.395000000000     0.558600000000     0.220800000000    -0.261406   
O        O      0.501900000000     0.354300000000     0.309000000000    -0.261406   
O        O      0.415500000000     0.522300000000     0.350200000000    -0.261406   
O        O      0.515600000000     0.108900000000     0.681500000000    -0.261406   
O        O      0.605000000000     0.941400000000     0.720800000000    -0.261406   
O        O      0.498100000000     0.145700000000     0.809000000000    -0.261406   
O        O      0.584500000000     0.977700000000     0.850200000000    -0.261406   
O        O      0.984400000000     0.608900000000     0.318500000000    -0.261406   
O        O      0.895000000000     0.441400000000     0.279200000000    -0.261406   
O        O      0.001900000000     0.645700000000     0.191000000000    -0.261406   
O        O      0.915500000000     0.477700000000     0.149800000000    -0.261406   
O        O      0.015600000000     0.891100000000     0.818500000000    -0.261406   
O        O      0.105000000000     0.058600000000     0.779200000000    -0.261406   
O        O      0.998100000000     0.854300000000     0.691000000000    -0.261406   
O        O      0.084500000000     0.022300000000     0.649800000000    -0.261406   
O        O      0.515600000000     0.608900000000     0.818500000000    -0.261406   
O        O      0.605000000000     0.441400000000     0.779200000000    -0.261406   
O        O      0.498100000000     0.645700000000     0.691000000000    -0.261406   
O        O      0.584500000000     0.477700000000     0.649800000000    -0.261406   
O        O      0.484400000000     0.891100000000     0.318500000000    -0.261406   
O        O      0.395000000000     0.058600000000     0.279200000000    -0.261406   
O        O      0.501900000000     0.854300000000     0.191000000000    -0.261406   
O        O      0.415500000000     0.022300000000     0.149800000000    -0.261406   
O        O      0.015600000000     0.391100000000     0.681500000000    -0.261406   
O        O      0.105000000000     0.558600000000     0.720800000000    -0.261406   
O        O      0.998100000000     0.354300000000     0.809000000000    -0.261406   
O        O      0.084500000000     0.522300000000     0.850200000000    -0.261406   
O        O      0.984400000000     0.108900000000     0.181500000000    -0.261406   
O        O      0.895000000000     0.941400000000     0.220800000000    -0.261406   
O        O      0.001900000000     0.145700000000     0.309000000000    -0.261406   
O        O      0.915500000000     0.977700000000     0.350200000000    -0.261406   


