data_WALBOC02_original

_audit_creation_method RASPA-1.0
_audit_creation_date 2022-1-31
_audit_author_name 'Felipe Lopes de Oliveira <felipe.lopes.oliveira@ibm.com>'

_cell_length_a    12.9591
_cell_length_b    13.7971
_cell_length_c    16.8153
_cell_angle_alpha 90
_cell_angle_beta  90
_cell_angle_gamma 90
_cell_volume      3006.54

_symmetry_cell_setting          triclinic
_symmetry_space_group_name_Hall 'P 1'
_symmetry_space_group_name_H-M  'P 1'
_symmetry_Int_Tables_number     1

_symmetry_equiv_pos_as_xyz 'x,y,z'

loop_
_atom_site_label
_atom_site_type_symbol
_atom_site_fract_x
_atom_site_fract_y
_atom_site_fract_z
_atom_site_charge
Zn       Zn     0.426650000000     0.977540000000     0.403920000000     0.389375   
Zn       Zn     0.476600000000     0.907140000000     0.076100000000     0.389375   
Zn       Zn     0.573350000000     0.522460000000     0.903920000000     0.389375   
Zn       Zn     0.523400000000     0.592860000000     0.576100000000     0.389375   
Zn       Zn     0.926650000000     0.022460000000     0.096080000000     0.389375   
Zn       Zn     0.976600000000     0.092860000000     0.423900000000     0.389375   
Zn       Zn     0.073350000000     0.477540000000     0.596080000000     0.389375   
Zn       Zn     0.023400000000     0.407140000000     0.923900000000     0.389375   
Zn       Zn     0.573350000000     0.022460000000     0.596080000000     0.389375   
Zn       Zn     0.523400000000     0.092860000000     0.923900000000     0.389375   
Zn       Zn     0.426650000000     0.477540000000     0.096080000000     0.389375   
Zn       Zn     0.476600000000     0.407140000000     0.423900000000     0.389375   
Zn       Zn     0.073350000000     0.977540000000     0.903920000000     0.389375   
Zn       Zn     0.023400000000     0.907140000000     0.576100000000     0.389375   
Zn       Zn     0.926650000000     0.522460000000     0.403920000000     0.389375   
Zn       Zn     0.976600000000     0.592860000000     0.076100000000     0.389375   
H        H      0.251800000000     0.863400000000     0.501600000000     0.124345   
H        H      0.446600000000     0.195000000000     0.352900000000     0.124345   
H        H      0.172500000000     0.169300000000     0.356300000000     0.124345   
H        H      0.281700000000     0.132500000000     0.341000000000     0.124345   
H        H      0.587100000000     0.237800000000     0.625300000000     0.124345   
H        H      0.564200000000     0.333400000000     0.583500000000     0.124345   
H        H      0.748200000000     0.636600000000     0.001600000000     0.124345   
H        H      0.553400000000     0.305000000000     0.852900000000     0.124345   
H        H      0.827500000000     0.330700000000     0.856300000000     0.124345   
H        H      0.718300000000     0.367500000000     0.841000000000     0.124345   
H        H      0.412900000000     0.262200000000     0.125300000000     0.124345   
H        H      0.435800000000     0.166600000000     0.083500000000     0.124345   
H        H      0.751800000000     0.136600000000     0.998400000000     0.124345   
H        H      0.946600000000     0.805000000000     0.147100000000     0.124345   
H        H      0.672500000000     0.830700000000     0.143700000000     0.124345   
H        H      0.781700000000     0.867500000000     0.159000000000     0.124345   
H        H      0.087100000000     0.762200000000     0.874700000000     0.124345   
H        H      0.064200000000     0.666600000000     0.916500000000     0.124345   
H        H      0.248200000000     0.363400000000     0.498400000000     0.124345   
H        H      0.053400000000     0.695000000000     0.647100000000     0.124345   
H        H      0.327500000000     0.669300000000     0.643700000000     0.124345   
H        H      0.218300000000     0.632500000000     0.659000000000     0.124345   
H        H      0.912900000000     0.737800000000     0.374700000000     0.124345   
H        H      0.935800000000     0.833400000000     0.416500000000     0.124345   
H        H      0.748200000000     0.136600000000     0.498400000000     0.124345   
H        H      0.553400000000     0.805000000000     0.647100000000     0.124345   
H        H      0.827500000000     0.830700000000     0.643700000000     0.124345   
H        H      0.718300000000     0.867500000000     0.659000000000     0.124345   
H        H      0.412900000000     0.762200000000     0.374700000000     0.124345   
H        H      0.435800000000     0.666600000000     0.416500000000     0.124345   
H        H      0.251800000000     0.363400000000     0.998400000000     0.124345   
H        H      0.446600000000     0.695000000000     0.147100000000     0.124345   
H        H      0.172500000000     0.669300000000     0.143700000000     0.124345   
H        H      0.281700000000     0.632500000000     0.159000000000     0.124345   
H        H      0.587100000000     0.737800000000     0.874700000000     0.124345   
H        H      0.564200000000     0.833400000000     0.916500000000     0.124345   
H        H      0.248200000000     0.863400000000     0.001600000000     0.124345   
H        H      0.053400000000     0.195000000000     0.852900000000     0.124345   
H        H      0.327500000000     0.169300000000     0.856300000000     0.124345   
H        H      0.218300000000     0.132500000000     0.841000000000     0.124345   
H        H      0.912900000000     0.237800000000     0.125300000000     0.124345   
H        H      0.935800000000     0.333400000000     0.083500000000     0.124345   
H        H      0.751800000000     0.636600000000     0.501600000000     0.124345   
H        H      0.946600000000     0.305000000000     0.352900000000     0.124345   
H        H      0.672500000000     0.330700000000     0.356300000000     0.124345   
H        H      0.781700000000     0.367500000000     0.341000000000     0.124345   
H        H      0.087100000000     0.262200000000     0.625300000000     0.124345   
H        H      0.064200000000     0.166600000000     0.583500000000     0.124345   
C        C      0.423500000000     0.006000000000     0.223050000000     0.189835   
C        C      0.472400000000     0.909100000000     0.246420000000     0.189835   
C        C      0.202300000000     0.047500000000     0.410990000000     0.189835   
C        C      0.222100000000     0.919500000000     0.478180000000     0.189835   
C        C      0.526900000000     0.220400000000     0.519920000000     0.189835   
C        C      0.471600000000     0.188000000000     0.405690000000     0.189835   
C        C      0.576500000000     0.494000000000     0.723050000000     0.189835   
C        C      0.527600000000     0.590900000000     0.746420000000     0.189835   
C        C      0.797700000000     0.452500000000     0.910990000000     0.189835   
C        C      0.777900000000     0.580500000000     0.978180000000     0.189835   
C        C      0.473100000000     0.279600000000     0.019920000000     0.189835   
C        C      0.528400000000     0.312000000000     0.905690000000     0.189835   
C        C      0.923500000000     0.994000000000     0.276950000000     0.189835   
C        C      0.972400000000     0.090900000000     0.253580000000     0.189835   
C        C      0.702300000000     0.952500000000     0.089010000000     0.189835   
C        C      0.722100000000     0.080500000000     0.021820000000     0.189835   
C        C      0.026900000000     0.779600000000     0.980080000000     0.189835   
C        C      0.971600000000     0.812000000000     0.094310000000     0.189835   
C        C      0.076500000000     0.506000000000     0.776950000000     0.189835   
C        C      0.027600000000     0.409100000000     0.753580000000     0.189835   
C        C      0.297700000000     0.547500000000     0.589010000000     0.189835   
C        C      0.277900000000     0.419500000000     0.521820000000     0.189835   
C        C      0.973100000000     0.720400000000     0.480080000000     0.189835   
C        C      0.028400000000     0.688000000000     0.594310000000     0.189835   
C        C      0.576500000000     0.994000000000     0.776950000000     0.189835   
C        C      0.527600000000     0.090900000000     0.753580000000     0.189835   
C        C      0.797700000000     0.952500000000     0.589010000000     0.189835   
C        C      0.777900000000     0.080500000000     0.521820000000     0.189835   
C        C      0.473100000000     0.779600000000     0.480080000000     0.189835   
C        C      0.528400000000     0.812000000000     0.594310000000     0.189835   
C        C      0.423500000000     0.506000000000     0.276950000000     0.189835   
C        C      0.472400000000     0.409100000000     0.253580000000     0.189835   
C        C      0.202300000000     0.547500000000     0.089010000000     0.189835   
C        C      0.222100000000     0.419500000000     0.021820000000     0.189835   
C        C      0.526900000000     0.720400000000     0.980080000000     0.189835   
C        C      0.471600000000     0.688000000000     0.094310000000     0.189835   
C        C      0.076500000000     0.006000000000     0.723050000000     0.189835   
C        C      0.027600000000     0.909100000000     0.746420000000     0.189835   
C        C      0.297700000000     0.047500000000     0.910990000000     0.189835   
C        C      0.277900000000     0.919500000000     0.978180000000     0.189835   
C        C      0.973100000000     0.220400000000     0.019920000000     0.189835   
C        C      0.028400000000     0.188000000000     0.905690000000     0.189835   
C        C      0.923500000000     0.494000000000     0.223050000000     0.189835   
C        C      0.972400000000     0.590900000000     0.246420000000     0.189835   
C        C      0.702300000000     0.452500000000     0.410990000000     0.189835   
C        C      0.722100000000     0.580500000000     0.478180000000     0.189835   
C        C      0.026900000000     0.279600000000     0.519920000000     0.189835   
C        C      0.971600000000     0.312000000000     0.405690000000     0.189835   
N        N      0.273700000000     0.978530000000     0.428000000000    -0.203003   
N        N      0.127100000000     0.947170000000     0.491400000000    -0.203003   
N        N      0.113600000000     0.031400000000     0.447640000000    -0.203003   
N        N      0.221000000000     0.125600000000     0.363900000000    -0.203003   
N        N      0.523300000000     0.123990000000     0.515370000000    -0.203003   
N        N      0.486700000000     0.104080000000     0.439600000000    -0.203003   
N        N      0.494800000000     0.263180000000     0.452760000000    -0.203003   
N        N      0.563700000000     0.269600000000     0.583710000000    -0.203003   
N        N      0.726300000000     0.521470000000     0.928000000000    -0.203003   
N        N      0.872900000000     0.552830000000     0.991400000000    -0.203003   
N        N      0.886400000000     0.468600000000     0.947640000000    -0.203003   
N        N      0.779000000000     0.374400000000     0.863900000000    -0.203003   
N        N      0.476700000000     0.376010000000     0.015370000000    -0.203003   
N        N      0.513300000000     0.395920000000     0.939600000000    -0.203003   
N        N      0.505200000000     0.236820000000     0.952760000000    -0.203003   
N        N      0.436300000000     0.230400000000     0.083710000000    -0.203003   
N        N      0.773700000000     0.021470000000     0.072000000000    -0.203003   
N        N      0.627100000000     0.052830000000     0.008600000000    -0.203003   
N        N      0.613600000000     0.968600000000     0.052360000000    -0.203003   
N        N      0.721000000000     0.874400000000     0.136100000000    -0.203003   
N        N      0.023300000000     0.876010000000     0.984630000000    -0.203003   
N        N      0.986700000000     0.895920000000     0.060400000000    -0.203003   
N        N      0.994800000000     0.736820000000     0.047240000000    -0.203003   
N        N      0.063700000000     0.730400000000     0.916290000000    -0.203003   
N        N      0.226300000000     0.478530000000     0.572000000000    -0.203003   
N        N      0.372900000000     0.447170000000     0.508600000000    -0.203003   
N        N      0.386400000000     0.531400000000     0.552360000000    -0.203003   
N        N      0.279000000000     0.625600000000     0.636100000000    -0.203003   
N        N      0.976700000000     0.623990000000     0.484630000000    -0.203003   
N        N      0.013300000000     0.604080000000     0.560400000000    -0.203003   
N        N      0.005200000000     0.763180000000     0.547240000000    -0.203003   
N        N      0.936300000000     0.769600000000     0.416290000000    -0.203003   
N        N      0.726300000000     0.021470000000     0.572000000000    -0.203003   
N        N      0.872900000000     0.052830000000     0.508600000000    -0.203003   
N        N      0.886400000000     0.968600000000     0.552360000000    -0.203003   
N        N      0.779000000000     0.874400000000     0.636100000000    -0.203003   
N        N      0.476700000000     0.876010000000     0.484630000000    -0.203003   
N        N      0.513300000000     0.895920000000     0.560400000000    -0.203003   
N        N      0.505200000000     0.736820000000     0.547240000000    -0.203003   
N        N      0.436300000000     0.730400000000     0.416290000000    -0.203003   
N        N      0.273700000000     0.478530000000     0.072000000000    -0.203003   
N        N      0.127100000000     0.447170000000     0.008600000000    -0.203003   
N        N      0.113600000000     0.531400000000     0.052360000000    -0.203003   
N        N      0.221000000000     0.625600000000     0.136100000000    -0.203003   
N        N      0.523300000000     0.623990000000     0.984630000000    -0.203003   
N        N      0.486700000000     0.604080000000     0.060400000000    -0.203003   
N        N      0.494800000000     0.763180000000     0.047240000000    -0.203003   
N        N      0.563700000000     0.769600000000     0.916290000000    -0.203003   
N        N      0.226300000000     0.978530000000     0.928000000000    -0.203003   
N        N      0.372900000000     0.947170000000     0.991400000000    -0.203003   
N        N      0.386400000000     0.031400000000     0.947640000000    -0.203003   
N        N      0.279000000000     0.125600000000     0.863900000000    -0.203003   
N        N      0.976700000000     0.123990000000     0.015370000000    -0.203003   
N        N      0.013300000000     0.104080000000     0.939600000000    -0.203003   
N        N      0.005200000000     0.263180000000     0.952760000000    -0.203003   
N        N      0.936300000000     0.269600000000     0.083710000000    -0.203003   
N        N      0.773700000000     0.521470000000     0.428000000000    -0.203003   
N        N      0.627100000000     0.552830000000     0.491400000000    -0.203003   
N        N      0.613600000000     0.468600000000     0.447640000000    -0.203003   
N        N      0.721000000000     0.374400000000     0.363900000000    -0.203003   
N        N      0.023300000000     0.376010000000     0.515370000000    -0.203003   
N        N      0.986700000000     0.395920000000     0.439600000000    -0.203003   
N        N      0.994800000000     0.236820000000     0.452760000000    -0.203003   
N        N      0.063700000000     0.230400000000     0.583710000000    -0.203003   
O        O      0.394700000000     0.058250000000     0.279240000000    -0.259951   
O        O      0.482500000000     0.890530000000     0.318690000000    -0.259951   
O        O      0.417200000000     0.022900000000     0.149890000000    -0.259951   
O        O      0.502500000000     0.854840000000     0.191710000000    -0.259951   
O        O      0.605300000000     0.441750000000     0.779240000000    -0.259951   
O        O      0.517500000000     0.609470000000     0.818690000000    -0.259951   
O        O      0.582800000000     0.477100000000     0.649890000000    -0.259951   
O        O      0.497500000000     0.645160000000     0.691710000000    -0.259951   
O        O      0.894700000000     0.941750000000     0.220760000000    -0.259951   
O        O      0.982500000000     0.109470000000     0.181310000000    -0.259951   
O        O      0.917200000000     0.977100000000     0.350110000000    -0.259951   
O        O      0.002500000000     0.145160000000     0.308290000000    -0.259951   
O        O      0.105300000000     0.558250000000     0.720760000000    -0.259951   
O        O      0.017500000000     0.390530000000     0.681310000000    -0.259951   
O        O      0.082800000000     0.522900000000     0.850110000000    -0.259951   
O        O      0.997500000000     0.354840000000     0.808290000000    -0.259951   
O        O      0.605300000000     0.941750000000     0.720760000000    -0.259951   
O        O      0.517500000000     0.109470000000     0.681310000000    -0.259951   
O        O      0.582800000000     0.977100000000     0.850110000000    -0.259951   
O        O      0.497500000000     0.145160000000     0.808290000000    -0.259951   
O        O      0.394700000000     0.558250000000     0.220760000000    -0.259951   
O        O      0.482500000000     0.390530000000     0.181310000000    -0.259951   
O        O      0.417200000000     0.522900000000     0.350110000000    -0.259951   
O        O      0.502500000000     0.354840000000     0.308290000000    -0.259951   
O        O      0.105300000000     0.058250000000     0.779240000000    -0.259951   
O        O      0.017500000000     0.890530000000     0.818690000000    -0.259951   
O        O      0.082800000000     0.022900000000     0.649890000000    -0.259951   
O        O      0.997500000000     0.854840000000     0.691710000000    -0.259951   
O        O      0.894700000000     0.441750000000     0.279240000000    -0.259951   
O        O      0.982500000000     0.609470000000     0.318690000000    -0.259951   
O        O      0.917200000000     0.477100000000     0.149890000000    -0.259951   
O        O      0.002500000000     0.645160000000     0.191710000000    -0.259951   


