data_WALCET_original

_audit_creation_method RASPA-1.0
_audit_creation_date 2022-1-31
_audit_author_name 'Felipe Lopes de Oliveira <felipe.lopes.oliveira@ibm.com>'

_cell_length_a    13.0094
_cell_length_b    13.8033
_cell_length_c    16.8281
_cell_angle_alpha 90
_cell_angle_beta  90
_cell_angle_gamma 90
_cell_volume      3021.87

_symmetry_cell_setting          triclinic
_symmetry_space_group_name_Hall 'P 1'
_symmetry_space_group_name_H-M  'P 1'
_symmetry_Int_Tables_number     1

_symmetry_equiv_pos_as_xyz 'x,y,z'

loop_
_atom_site_label
_atom_site_type_symbol
_atom_site_fract_x
_atom_site_fract_y
_atom_site_fract_z
_atom_site_charge
Zn       Zn     0.425610000000     0.977870000000     0.404490000000     0.389012   
Zn       Zn     0.476830000000     0.907300000000     0.075980000000     0.389012   
Zn       Zn     0.574390000000     0.522130000000     0.904490000000     0.389012   
Zn       Zn     0.523170000000     0.592700000000     0.575980000000     0.389012   
Zn       Zn     0.925610000000     0.022130000000     0.095510000000     0.389012   
Zn       Zn     0.976830000000     0.092700000000     0.424020000000     0.389012   
Zn       Zn     0.074390000000     0.477870000000     0.595510000000     0.389012   
Zn       Zn     0.023170000000     0.407300000000     0.924020000000     0.389012   
Zn       Zn     0.574390000000     0.022130000000     0.595510000000     0.389012   
Zn       Zn     0.523170000000     0.092700000000     0.924020000000     0.389012   
Zn       Zn     0.425610000000     0.477870000000     0.095510000000     0.389012   
Zn       Zn     0.476830000000     0.407300000000     0.424020000000     0.389012   
Zn       Zn     0.074390000000     0.977870000000     0.904490000000     0.389012   
Zn       Zn     0.023170000000     0.907300000000     0.575980000000     0.389012   
Zn       Zn     0.925610000000     0.522130000000     0.404490000000     0.389012   
Zn       Zn     0.976830000000     0.592700000000     0.075980000000     0.389012   
H        H      0.251000000000     0.865800000000     0.502200000000     0.132612   
H        H      0.446300000000     0.195200000000     0.354800000000     0.132612   
H        H      0.172500000000     0.167400000000     0.355900000000     0.132612   
H        H      0.279100000000     0.132400000000     0.341400000000     0.132612   
H        H      0.586200000000     0.237600000000     0.624400000000     0.132612   
H        H      0.564700000000     0.331300000000     0.583700000000     0.132612   
H        H      0.749000000000     0.634200000000     0.002200000000     0.132612   
H        H      0.553700000000     0.304800000000     0.854800000000     0.132612   
H        H      0.827500000000     0.332600000000     0.855900000000     0.132612   
H        H      0.720900000000     0.367600000000     0.841400000000     0.132612   
H        H      0.413800000000     0.262400000000     0.124400000000     0.132612   
H        H      0.435300000000     0.168700000000     0.083700000000     0.132612   
H        H      0.751000000000     0.134200000000     0.997800000000     0.132612   
H        H      0.946300000000     0.804800000000     0.145200000000     0.132612   
H        H      0.672500000000     0.832600000000     0.144100000000     0.132612   
H        H      0.779100000000     0.867600000000     0.158600000000     0.132612   
H        H      0.086200000000     0.762400000000     0.875600000000     0.132612   
H        H      0.064700000000     0.668700000000     0.916300000000     0.132612   
H        H      0.249000000000     0.365800000000     0.497800000000     0.132612   
H        H      0.053700000000     0.695200000000     0.645200000000     0.132612   
H        H      0.327500000000     0.667400000000     0.644100000000     0.132612   
H        H      0.220900000000     0.632400000000     0.658600000000     0.132612   
H        H      0.913800000000     0.737600000000     0.375600000000     0.132612   
H        H      0.935300000000     0.831300000000     0.416300000000     0.132612   
H        H      0.749000000000     0.134200000000     0.497800000000     0.132612   
H        H      0.553700000000     0.804800000000     0.645200000000     0.132612   
H        H      0.827500000000     0.832600000000     0.644100000000     0.132612   
H        H      0.720900000000     0.867600000000     0.658600000000     0.132612   
H        H      0.413800000000     0.762400000000     0.375600000000     0.132612   
H        H      0.435300000000     0.668700000000     0.416300000000     0.132612   
H        H      0.251000000000     0.365800000000     0.997800000000     0.132612   
H        H      0.446300000000     0.695200000000     0.145200000000     0.132612   
H        H      0.172500000000     0.667400000000     0.144100000000     0.132612   
H        H      0.279100000000     0.632400000000     0.158600000000     0.132612   
H        H      0.586200000000     0.737600000000     0.875600000000     0.132612   
H        H      0.564700000000     0.831300000000     0.916300000000     0.132612   
H        H      0.249000000000     0.865800000000     0.002200000000     0.132612   
H        H      0.053700000000     0.195200000000     0.854800000000     0.132612   
H        H      0.327500000000     0.167400000000     0.855900000000     0.132612   
H        H      0.220900000000     0.132400000000     0.841400000000     0.132612   
H        H      0.913800000000     0.237600000000     0.124400000000     0.132612   
H        H      0.935300000000     0.331300000000     0.083700000000     0.132612   
H        H      0.751000000000     0.634200000000     0.502200000000     0.132612   
H        H      0.946300000000     0.304800000000     0.354800000000     0.132612   
H        H      0.672500000000     0.332600000000     0.355900000000     0.132612   
H        H      0.779100000000     0.367600000000     0.341400000000     0.132612   
H        H      0.086200000000     0.262400000000     0.624400000000     0.132612   
H        H      0.064700000000     0.168700000000     0.583700000000     0.132612   
C        C      0.468400000000     0.910300000000     0.245700000000     0.193768   
C        C      0.422400000000     0.008200000000     0.222290000000     0.193768   
C        C      0.202200000000     0.047400000000     0.411500000000     0.193768   
C        C      0.221800000000     0.920400000000     0.479090000000     0.193768   
C        C      0.527100000000     0.220260000000     0.520090000000     0.193768   
C        C      0.471100000000     0.188210000000     0.406310000000     0.193768   
C        C      0.531600000000     0.589700000000     0.745700000000     0.193768   
C        C      0.577600000000     0.491800000000     0.722290000000     0.193768   
C        C      0.797800000000     0.452600000000     0.911500000000     0.193768   
C        C      0.778200000000     0.579600000000     0.979090000000     0.193768   
C        C      0.472900000000     0.279740000000     0.020090000000     0.193768   
C        C      0.528900000000     0.311790000000     0.906310000000     0.193768   
C        C      0.968400000000     0.089700000000     0.254300000000     0.193768   
C        C      0.922400000000     0.991800000000     0.277710000000     0.193768   
C        C      0.702200000000     0.952600000000     0.088500000000     0.193768   
C        C      0.721800000000     0.079600000000     0.020910000000     0.193768   
C        C      0.027100000000     0.779740000000     0.979910000000     0.193768   
C        C      0.971100000000     0.811790000000     0.093690000000     0.193768   
C        C      0.031600000000     0.410300000000     0.754300000000     0.193768   
C        C      0.077600000000     0.508200000000     0.777710000000     0.193768   
C        C      0.297800000000     0.547400000000     0.588500000000     0.193768   
C        C      0.278200000000     0.420400000000     0.520910000000     0.193768   
C        C      0.972900000000     0.720260000000     0.479910000000     0.193768   
C        C      0.028900000000     0.688210000000     0.593690000000     0.193768   
C        C      0.531600000000     0.089700000000     0.754300000000     0.193768   
C        C      0.577600000000     0.991800000000     0.777710000000     0.193768   
C        C      0.797800000000     0.952600000000     0.588500000000     0.193768   
C        C      0.778200000000     0.079600000000     0.520910000000     0.193768   
C        C      0.472900000000     0.779740000000     0.479910000000     0.193768   
C        C      0.528900000000     0.811790000000     0.593690000000     0.193768   
C        C      0.468400000000     0.410300000000     0.254300000000     0.193768   
C        C      0.422400000000     0.508200000000     0.277710000000     0.193768   
C        C      0.202200000000     0.547400000000     0.088500000000     0.193768   
C        C      0.221800000000     0.420400000000     0.020910000000     0.193768   
C        C      0.527100000000     0.720260000000     0.979910000000     0.193768   
C        C      0.471100000000     0.688210000000     0.093690000000     0.193768   
C        C      0.031600000000     0.910300000000     0.745700000000     0.193768   
C        C      0.077600000000     0.008200000000     0.722290000000     0.193768   
C        C      0.297800000000     0.047400000000     0.911500000000     0.193768   
C        C      0.278200000000     0.920400000000     0.979090000000     0.193768   
C        C      0.972900000000     0.220260000000     0.020090000000     0.193768   
C        C      0.028900000000     0.188210000000     0.906310000000     0.193768   
C        C      0.968400000000     0.589700000000     0.245700000000     0.193768   
C        C      0.922400000000     0.491800000000     0.222290000000     0.193768   
C        C      0.702200000000     0.452600000000     0.411500000000     0.193768   
C        C      0.721800000000     0.579600000000     0.479090000000     0.193768   
C        C      0.027100000000     0.279740000000     0.520090000000     0.193768   
C        C      0.971100000000     0.311790000000     0.406310000000     0.193768   
N        N      0.272890000000     0.979240000000     0.429020000000    -0.210488   
N        N      0.127370000000     0.947550000000     0.492000000000    -0.210488   
N        N      0.113610000000     0.031450000000     0.447980000000    -0.210488   
N        N      0.220100000000     0.125300000000     0.363700000000    -0.210488   
N        N      0.523000000000     0.124010000000     0.515520000000    -0.210488   
N        N      0.485950000000     0.104160000000     0.440060000000    -0.210488   
N        N      0.495110000000     0.263190000000     0.453020000000    -0.210488   
N        N      0.563800000000     0.269000000000     0.583810000000    -0.210488   
N        N      0.727110000000     0.520760000000     0.929020000000    -0.210488   
N        N      0.872630000000     0.552450000000     0.992000000000    -0.210488   
N        N      0.886390000000     0.468550000000     0.947980000000    -0.210488   
N        N      0.779900000000     0.374700000000     0.863700000000    -0.210488   
N        N      0.477000000000     0.375990000000     0.015520000000    -0.210488   
N        N      0.514050000000     0.395840000000     0.940060000000    -0.210488   
N        N      0.504890000000     0.236810000000     0.953020000000    -0.210488   
N        N      0.436200000000     0.231000000000     0.083810000000    -0.210488   
N        N      0.772890000000     0.020760000000     0.070980000000    -0.210488   
N        N      0.627370000000     0.052450000000     0.008000000000    -0.210488   
N        N      0.613610000000     0.968550000000     0.052020000000    -0.210488   
N        N      0.720100000000     0.874700000000     0.136300000000    -0.210488   
N        N      0.023000000000     0.875990000000     0.984480000000    -0.210488   
N        N      0.985950000000     0.895840000000     0.059940000000    -0.210488   
N        N      0.995110000000     0.736810000000     0.046980000000    -0.210488   
N        N      0.063800000000     0.731000000000     0.916190000000    -0.210488   
N        N      0.227110000000     0.479240000000     0.570980000000    -0.210488   
N        N      0.372630000000     0.447550000000     0.508000000000    -0.210488   
N        N      0.386390000000     0.531450000000     0.552020000000    -0.210488   
N        N      0.279900000000     0.625300000000     0.636300000000    -0.210488   
N        N      0.977000000000     0.624010000000     0.484480000000    -0.210488   
N        N      0.014050000000     0.604160000000     0.559940000000    -0.210488   
N        N      0.004890000000     0.763190000000     0.546980000000    -0.210488   
N        N      0.936200000000     0.769000000000     0.416190000000    -0.210488   
N        N      0.727110000000     0.020760000000     0.570980000000    -0.210488   
N        N      0.872630000000     0.052450000000     0.508000000000    -0.210488   
N        N      0.886390000000     0.968550000000     0.552020000000    -0.210488   
N        N      0.779900000000     0.874700000000     0.636300000000    -0.210488   
N        N      0.477000000000     0.875990000000     0.484480000000    -0.210488   
N        N      0.514050000000     0.895840000000     0.559940000000    -0.210488   
N        N      0.504890000000     0.736810000000     0.546980000000    -0.210488   
N        N      0.436200000000     0.731000000000     0.416190000000    -0.210488   
N        N      0.272890000000     0.479240000000     0.070980000000    -0.210488   
N        N      0.127370000000     0.447550000000     0.008000000000    -0.210488   
N        N      0.113610000000     0.531450000000     0.052020000000    -0.210488   
N        N      0.220100000000     0.625300000000     0.136300000000    -0.210488   
N        N      0.523000000000     0.624010000000     0.984480000000    -0.210488   
N        N      0.485950000000     0.604160000000     0.059940000000    -0.210488   
N        N      0.495110000000     0.763190000000     0.046980000000    -0.210488   
N        N      0.563800000000     0.769000000000     0.916190000000    -0.210488   
N        N      0.227110000000     0.979240000000     0.929020000000    -0.210488   
N        N      0.372630000000     0.947550000000     0.992000000000    -0.210488   
N        N      0.386390000000     0.031450000000     0.947980000000    -0.210488   
N        N      0.279900000000     0.125300000000     0.863700000000    -0.210488   
N        N      0.977000000000     0.124010000000     0.015520000000    -0.210488   
N        N      0.014050000000     0.104160000000     0.940060000000    -0.210488   
N        N      0.004890000000     0.263190000000     0.953020000000    -0.210488   
N        N      0.936200000000     0.269000000000     0.083810000000    -0.210488   
N        N      0.772890000000     0.520760000000     0.429020000000    -0.210488   
N        N      0.627370000000     0.552450000000     0.492000000000    -0.210488   
N        N      0.613610000000     0.468550000000     0.447980000000    -0.210488   
N        N      0.720100000000     0.374700000000     0.363700000000    -0.210488   
N        N      0.023000000000     0.375990000000     0.515520000000    -0.210488   
N        N      0.985950000000     0.395840000000     0.440060000000    -0.210488   
N        N      0.995110000000     0.236810000000     0.453020000000    -0.210488   
N        N      0.063800000000     0.231000000000     0.583810000000    -0.210488   
O        O      0.476200000000     0.891110000000     0.317910000000    -0.263098   
O        O      0.394600000000     0.060390000000     0.278320000000    -0.263098   
O        O      0.497700000000     0.855810000000     0.191340000000    -0.263098   
O        O      0.418200000000     0.024520000000     0.149530000000    -0.263098   
O        O      0.523800000000     0.608890000000     0.817910000000    -0.263098   
O        O      0.605400000000     0.439610000000     0.778320000000    -0.263098   
O        O      0.502300000000     0.644190000000     0.691340000000    -0.263098   
O        O      0.581800000000     0.475480000000     0.649530000000    -0.263098   
O        O      0.976200000000     0.108890000000     0.182090000000    -0.263098   
O        O      0.894600000000     0.939610000000     0.221680000000    -0.263098   
O        O      0.997700000000     0.144190000000     0.308660000000    -0.263098   
O        O      0.918200000000     0.975480000000     0.350470000000    -0.263098   
O        O      0.023800000000     0.391110000000     0.682090000000    -0.263098   
O        O      0.105400000000     0.560390000000     0.721680000000    -0.263098   
O        O      0.002300000000     0.355810000000     0.808660000000    -0.263098   
O        O      0.081800000000     0.524520000000     0.850470000000    -0.263098   
O        O      0.523800000000     0.108890000000     0.682090000000    -0.263098   
O        O      0.605400000000     0.939610000000     0.721680000000    -0.263098   
O        O      0.502300000000     0.144190000000     0.808660000000    -0.263098   
O        O      0.581800000000     0.975480000000     0.850470000000    -0.263098   
O        O      0.476200000000     0.391110000000     0.182090000000    -0.263098   
O        O      0.394600000000     0.560390000000     0.221680000000    -0.263098   
O        O      0.497700000000     0.355810000000     0.308660000000    -0.263098   
O        O      0.418200000000     0.524520000000     0.350470000000    -0.263098   
O        O      0.023800000000     0.891110000000     0.817910000000    -0.263098   
O        O      0.105400000000     0.060390000000     0.778320000000    -0.263098   
O        O      0.002300000000     0.855810000000     0.691340000000    -0.263098   
O        O      0.081800000000     0.024520000000     0.649530000000    -0.263098   
O        O      0.976200000000     0.608890000000     0.317910000000    -0.263098   
O        O      0.894600000000     0.439610000000     0.278320000000    -0.263098   
O        O      0.997700000000     0.644190000000     0.191340000000    -0.263098   
O        O      0.918200000000     0.475480000000     0.149530000000    -0.263098   


