data_WAYMOA_original

_audit_creation_method RASPA-1.0
_audit_creation_date 2022-1-31
_audit_author_name 'Felipe Lopes de Oliveira <felipe.lopes.oliveira@ibm.com>'

_cell_length_a    6.67333
_cell_length_b    11.1284
_cell_length_c    11.1285
_cell_angle_alpha 70.2577
_cell_angle_beta  72.5536
_cell_angle_gamma 72.556
_cell_volume      723.721

_symmetry_cell_setting          triclinic
_symmetry_space_group_name_Hall 'P 1'
_symmetry_space_group_name_H-M  'P 1'
_symmetry_Int_Tables_number     1

_symmetry_equiv_pos_as_xyz 'x,y,z'

loop_
_atom_site_label
_atom_site_type_symbol
_atom_site_fract_x
_atom_site_fract_y
_atom_site_fract_z
_atom_site_charge
Al       Al     0.005764000000     0.498280000000     0.997090000000     16.2152    
Al       Al     0.505644000000     0.498340000000     0.997030000000     16.2152    
H        H      0.622910000000     0.111557000000     0.004190000000     0.35582    
H        H      0.888268000000     0.491573000000     0.383620000000     0.35582    
H        H      0.767918000000     0.505753000000     0.610200000000     0.35582    
H        H      0.743320000000     0.884957000000     0.990050000000     0.35582    
H        H      0.388318000000     0.884873000000     0.990380000000     0.35582    
H        H      0.122780000000     0.505737000000     0.610270000000     0.35582    
H        H      0.243130000000     0.491567000000     0.383680000000     0.35582    
H        H      0.267898000000     0.111473000000     0.004520000000     0.35582    
H        H      0.756059000000     0.621510000000     0.873450000000     0.35582    
H        H      0.256069000000     0.374760000000     0.120380000000     0.35582    
C        C      0.790359000000     0.063513000000     0.001660000000     0.50479    
C        C      0.720830000000     0.494077000000     0.431710000000     0.50479    
C        C      0.651090000000     0.503117000000     0.562190000000     0.50479    
C        C      0.860139000000     0.933013000000     0.992640000000     0.50479    
C        C      0.220910000000     0.932947000000     0.992820000000     0.50479    
C        C      0.290249000000     0.503133000000     0.562220000000     0.50479    
C        C      0.359989000000     0.494093000000     0.431740000000     0.50479    
C        C      0.151120000000     0.063447000000     0.001840000000     0.50479    
C        C      0.934399000000     0.131510000000     0.006590000000     0.50479    
C        C      0.861589000000     0.273660000000     0.010040000000     0.50479    
C        C      0.577009000000     0.489070000000     0.363710000000     0.50479    
C        C      0.649869000000     0.485380000000     0.221660000000     0.50479    
C        C      0.434349000000     0.507940000000     0.630260000000     0.50479    
C        C      0.361599000000     0.511360000000     0.772400000000     0.50479    
C        C      0.077129000000     0.864960000000     0.987760000000     0.50479    
C        C      0.150009000000     0.722880000000     0.984120000000     0.50479    
O        O      0.003142000000     0.332167000000     0.009660000000    -4.40653    
O        O      0.508097000000     0.485773000000     0.163160000000    -4.40653    
O        O      0.161747000000     0.510913000000     0.830940000000    -4.40653    
O        O      0.349702000000     0.664417000000     0.984470000000    -4.40653    
O        O      0.008227000000     0.664403000000     0.984510000000    -4.40653    
O        O      0.503202000000     0.510917000000     0.830910000000    -4.40653    
O        O      0.849562000000     0.485737000000     0.163190000000    -4.40653    
O        O      0.661737000000     0.332233000000     0.009540000000    -4.40653    
O        O      0.755859000000     0.554340000000     0.940940000000    -4.40653    
O        O      0.255999000000     0.442120000000     0.053120000000    -4.40653    


