data_WEBKOF_original

_audit_creation_method RASPA-1.0
_audit_creation_date 2022-1-30
_audit_author_name 'Felipe Lopes de Oliveira <felipe.lopes.oliveira@ibm.com>'

_cell_length_a    17.3033
_cell_length_b    18.2481
_cell_length_c    18.2481
_cell_angle_alpha 77.0099
_cell_angle_beta  61.6985
_cell_angle_gamma 61.6985
_cell_volume      4466.72

_symmetry_cell_setting          triclinic
_symmetry_space_group_name_Hall 'P 1'
_symmetry_space_group_name_H-M  'P 1'
_symmetry_Int_Tables_number     1

_symmetry_equiv_pos_as_xyz 'x,y,z'

loop_
_atom_site_label
_atom_site_type_symbol
_atom_site_fract_x
_atom_site_fract_y
_atom_site_fract_z
_atom_site_charge
Zn       Zn     0.250000000000     0.500000000000     0.500000000000     0.520831   
In       In     0.390960000000     0.400800000000     0.999460000000     2.40515    
In       In     0.791220000000     0.599200000000     0.000540000000     2.40515    
In       In     0.609580000000     0.999460000000     0.599200000000     2.40515    
In       In     0.208240000000     0.000540000000     0.400800000000     2.40515    
In       In     0.000000000000     0.000000000000     0.000000000000     2.40515    
H        H      0.911400000000     0.784800000000     0.021600000000     0.0733964  
H        H      0.164400000000     0.705200000000     0.025000000000     0.0733964  
H        H      0.068600000000     0.537600000000     0.033600000000     0.0733964  
H        H      0.424500000000     0.284500000000     0.595900000000     0.0733964  
H        H      0.363200000000     0.463800000000     0.738400000000     0.0733964  
H        H      0.497400000000     0.218000000000     0.788000000000     0.0733964  
H        H      0.717800000000     0.215200000000     0.978400000000     0.0733964  
H        H      0.894600000000     0.294800000000     0.975000000000     0.0733964  
H        H      0.639800000000     0.462400000000     0.966400000000     0.0733964  
H        H      0.304900000000     0.715500000000     0.404100000000     0.0733964  
H        H      0.565400000000     0.536200000000     0.261600000000     0.0733964  
H        H      0.503400000000     0.782000000000     0.212000000000     0.0733964  
H        H      0.067000000000     0.021600000000     0.215200000000     0.0733964  
H        H      0.810600000000     0.025000000000     0.294800000000     0.0733964  
H        H      0.897800000000     0.033600000000     0.462400000000     0.0733964  
H        H      0.979600000000     0.595900000000     0.715500000000     0.0733964  
H        H      0.898400000000     0.738400000000     0.536200000000     0.0733964  
H        H      0.714600000000     0.788000000000     0.782000000000     0.0733964  
H        H      0.303800000000     0.978400000000     0.784800000000     0.0733964  
H        H      0.130400000000     0.975000000000     0.705200000000     0.0733964  
H        H      0.393800000000     0.966400000000     0.537600000000     0.0733964  
H        H      0.291000000000     0.404100000000     0.284500000000     0.0733964  
H        H      0.173000000000     0.261600000000     0.463800000000     0.0733964  
H        H      0.284600000000     0.212000000000     0.218000000000     0.0733964  
C        C      0.036100000000     0.755400000000     0.025400000000     0.0923326  
C        C      0.966800000000     0.740500000000     0.024100000000     0.0923326  
C        C      0.229600000000     0.534200000000     0.018200000000     0.0923326  
C        C      0.978600000000     0.658400000000     0.026600000000     0.0923326  
C        C      0.117700000000     0.693300000000     0.025100000000     0.0923326  
C        C      0.061600000000     0.592000000000     0.029200000000     0.0923326  
C        C      0.022700000000     0.846600000000     0.012000000000     0.0923326  
C        C      0.135400000000     0.609000000000     0.024800000000     0.0923326  
C        C      0.466600000000     0.241400000000     0.684200000000     0.0923326  
C        C      0.424800000000     0.299600000000     0.641200000000     0.0923326  
C        C      0.385300000000     0.408500000000     0.726900000000     0.0923326  
C        C      0.425800000000     0.345700000000     0.775300000000     0.0923326  
C        C      0.377900000000     0.389100000000     0.661900000000     0.0923326  
C        C      0.469200000000     0.259700000000     0.756500000000     0.0923326  
C        C      0.430900000000     0.362600000000     0.853800000000     0.0923326  
C        C      0.332200000000     0.453700000000     0.609500000000     0.0923326  
C        C      0.515100000000     0.153900000000     0.657100000000     0.0923326  
C        C      0.907300000000     0.640300000000     0.018100000000     0.0923326  
C        C      0.816900000000     0.244600000000     0.974600000000     0.0923326  
C        C      0.731400000000     0.259500000000     0.975900000000     0.0923326  
C        C      0.782000000000     0.465800000000     0.981800000000     0.0923326  
C        C      0.663600000000     0.341600000000     0.973400000000     0.0923326  
C        C      0.836100000000     0.306700000000     0.974900000000     0.0923326  
C        C      0.682800000000     0.408000000000     0.970800000000     0.0923326  
C        C      0.881300000000     0.153400000000     0.988000000000     0.0923326  
C        C      0.769200000000     0.391000000000     0.975200000000     0.0923326  
C        C      0.392200000000     0.758600000000     0.315800000000     0.0923326  
C        C      0.365600000000     0.700400000000     0.358800000000     0.0923326  
C        C      0.520700000000     0.591500000000     0.273100000000     0.0923326  
C        C      0.546800000000     0.654300000000     0.224700000000     0.0923326  
C        C      0.428900000000     0.610900000000     0.338100000000     0.0923326  
C        C      0.485400000000     0.740300000000     0.243500000000     0.0923326  
C        C      0.647300000000     0.637400000000     0.146200000000     0.0923326  
C        C      0.395400000000     0.546300000000     0.390500000000     0.0923326  
C        C      0.326100000000     0.846100000000     0.342900000000     0.0923326  
C        C      0.565700000000     0.359700000000     0.981900000000     0.0923326  
C        C      0.938500000000     0.025400000000     0.244600000000     0.0923326  
C        C      0.009100000000     0.024100000000     0.259500000000     0.0923326  
C        C      0.752200000000     0.018200000000     0.465800000000     0.0923326  
C        C      0.994800000000     0.026600000000     0.341600000000     0.0923326  
C        C      0.857200000000     0.025100000000     0.306700000000     0.0923326  
C        C      0.909200000000     0.029200000000     0.408000000000     0.0923326  
C        C      0.965300000000     0.012000000000     0.153400000000     0.0923326  
C        C      0.839800000000     0.024800000000     0.391000000000     0.0923326  
C        C      0.849200000000     0.684200000000     0.758600000000     0.0923326  
C        C      0.934000000000     0.641200000000     0.700400000000     0.0923326  
C        C      0.887800000000     0.726900000000     0.591500000000     0.0923326  
C        C      0.798900000000     0.775300000000     0.654300000000     0.0923326  
C        C      0.960200000000     0.661900000000     0.610900000000     0.0923326  
C        C      0.774300000000     0.756500000000     0.740300000000     0.0923326  
C        C      0.715300000000     0.853800000000     0.637400000000     0.0923326  
C        C      0.058300000000     0.609500000000     0.546300000000     0.0923326  
C        C      0.827800000000     0.657100000000     0.846100000000     0.0923326  
C        C      0.074600000000     0.018100000000     0.359700000000     0.0923326  
C        C      0.208500000000     0.974600000000     0.755400000000     0.0923326  
C        C      0.292700000000     0.975900000000     0.740500000000     0.0923326  
C        C      0.236200000000     0.981800000000     0.534200000000     0.0923326  
C        C      0.363000000000     0.973400000000     0.658400000000     0.0923326  
C        C      0.189000000000     0.974900000000     0.693300000000     0.0923326  
C        C      0.346400000000     0.970800000000     0.592000000000     0.0923326  
C        C      0.130700000000     0.988000000000     0.846600000000     0.0923326  
C        C      0.255600000000     0.975200000000     0.609000000000     0.0923326  
C        C      0.292000000000     0.315800000000     0.241400000000     0.0923326  
C        C      0.275600000000     0.358800000000     0.299600000000     0.0923326  
C        C      0.206200000000     0.273100000000     0.408500000000     0.0923326  
C        C      0.228500000000     0.224700000000     0.345700000000     0.0923326  
C        C      0.233000000000     0.338100000000     0.389100000000     0.0923326  
C        C      0.271100000000     0.243500000000     0.259700000000     0.0923326  
C        C      0.206500000000     0.146200000000     0.362600000000     0.0923326  
C        C      0.214100000000     0.390500000000     0.453700000000     0.0923326  
C        C      0.331000000000     0.342900000000     0.153900000000     0.0923326  
C        C      0.452400000000     0.981900000000     0.640300000000     0.0923326  
O        O      0.235000000000     0.462700000000     0.020900000000    -0.436584   
O        O      0.913900000000     0.568200000000     0.029000000000    -0.436584   
O        O      0.411900000000     0.437200000000     0.861400000000    -0.436584   
O        O      0.839000000000     0.699100000000     0.004700000000    -0.436584   
O        O      0.520000000000     0.133600000000     0.594200000000    -0.436584   
O        O      0.564800000000     0.092100000000     0.696500000000    -0.436584   
O        O      0.428000000000     0.311800000000     0.907800000000    -0.436584   
O        O      0.298100000000     0.545300000000     0.011700000000    -0.436584   
O        O      0.953700000000     0.902400000000     0.008800000000    -0.436584   
O        O      0.090900000000     0.858000000000     0.014000000000    -0.436584   
O        O      0.316400000000     0.421000000000     0.565200000000    -0.436584   
O        O      0.311600000000     0.525400000000     0.616600000000    -0.436584   
O        O      0.718600000000     0.537300000000     0.979100000000    -0.436584   
O        O      0.511100000000     0.431800000000     0.971000000000    -0.436584   
O        O      0.710500000000     0.562800000000     0.138600000000    -0.436584   
O        O      0.542800000000     0.300900000000     0.995300000000    -0.436584   
O        O      0.247800000000     0.866400000000     0.405800000000    -0.436584   
O        O      0.353400000000     0.907900000000     0.303500000000    -0.436584   
O        O      0.647600000000     0.688200000000     0.092200000000    -0.436584   
O        O      0.855100000000     0.454700000000     0.988300000000    -0.436584   
O        O      0.864900000000     0.097600000000     0.991200000000    -0.436584   
O        O      0.962900000000     0.142000000000     0.986000000000    -0.436584   
O        O      0.302600000000     0.579000000000     0.434800000000    -0.436584   
O        O      0.453600000000     0.474600000000     0.383400000000    -0.436584   
O        O      0.744100000000     0.020900000000     0.537300000000    -0.436584   
O        O      0.057100000000     0.029000000000     0.431800000000    -0.436584   
O        O      0.726700000000     0.861400000000     0.562800000000    -0.436584   
O        O      0.156300000000     0.004700000000     0.300900000000    -0.436584   
O        O      0.885800000000     0.594200000000     0.866400000000    -0.436584   
O        O      0.738700000000     0.696500000000     0.907900000000    -0.436584   
O        O      0.664200000000     0.907800000000     0.688200000000    -0.436584   
O        O      0.690200000000     0.011700000000     0.454700000000    -0.436584   
O        O      0.037500000000     0.008800000000     0.097600000000    -0.436584   
O        O      0.895100000000     0.014000000000     0.142000000000    -0.436584   
O        O      0.118400000000     0.565200000000     0.579000000000    -0.436584   
O        O      0.071800000000     0.616600000000     0.474600000000    -0.436584   
O        O      0.302300000000     0.979100000000     0.462700000000    -0.436584   
O        O      0.517900000000     0.971000000000     0.568200000000    -0.436584   
O        O      0.150900000000     0.138600000000     0.437200000000    -0.436584   
O        O      0.461900000000     0.995300000000     0.699100000000    -0.436584   
O        O      0.346400000000     0.405800000000     0.133600000000    -0.436584   
O        O      0.343100000000     0.303500000000     0.092100000000    -0.436584   
O        O      0.260200000000     0.092200000000     0.311800000000    -0.436584   
O        O      0.156600000000     0.988300000000     0.545300000000    -0.436584   
O        O      0.143900000000     0.991200000000     0.902400000000    -0.436584   
O        O      0.051100000000     0.986000000000     0.858000000000    -0.436584   
O        O      0.262600000000     0.434800000000     0.421000000000    -0.436584   
O        O      0.163000000000     0.383400000000     0.525400000000    -0.436584   


