data_WECJAR_original

_audit_creation_method RASPA-1.0
_audit_creation_date 2022-1-29
_audit_author_name 'Felipe Lopes de Oliveira <felipe.lopes.oliveira@ibm.com>'

_cell_length_a    9.9312
_cell_length_b    13.9611
_cell_length_c    13.9611
_cell_angle_alpha 104.074
_cell_angle_beta  94.0146
_cell_angle_gamma 94.0146
_cell_volume      1865.41

_symmetry_cell_setting          triclinic
_symmetry_space_group_name_Hall 'P 1'
_symmetry_space_group_name_H-M  'P 1'
_symmetry_Int_Tables_number     1

_symmetry_equiv_pos_as_xyz 'x,y,z'

loop_
_atom_site_label
_atom_site_type_symbol
_atom_site_fract_x
_atom_site_fract_y
_atom_site_fract_z
_atom_site_charge
Zn       Zn     0.605040000000     0.236510000000     0.692540000000     0.466119   
Zn       Zn     0.894960000000     0.307460000000     0.763490000000     0.466119   
Zn       Zn     0.394960000000     0.763490000000     0.307460000000     0.466119   
Zn       Zn     0.105040000000     0.692540000000     0.236510000000     0.466119   
H        H      0.986400000000     0.404200000000     0.472200000000     0.0584179  
H        H      0.927200000000     0.415700000000     0.302700000000     0.0584179  
H        H      0.503400000000     0.264700000000     0.190900000000     0.0584179  
H        H      0.464500000000     0.253900000000     0.014900000000     0.0584179  
H        H      0.455800000000     0.035600000000     0.624400000000     0.0584179  
H        H      0.349300000000     0.292600000000     0.609600000000     0.0584179  
H        H      0.243000000000     0.961200000000     0.558200000000     0.0584179  
H        H      0.135600000000     0.227800000000     0.544000000000     0.0584179  
H        H      0.962000000000     0.090700000000     0.495500000000     0.0584179  
H        H      0.513600000000     0.527800000000     0.595800000000     0.0584179  
H        H      0.572800000000     0.697300000000     0.584300000000     0.0584179  
H        H      0.996600000000     0.809100000000     0.735300000000     0.0584179  
H        H      0.035500000000     0.985100000000     0.746100000000     0.0584179  
H        H      0.044200000000     0.375600000000     0.964400000000     0.0584179  
H        H      0.150700000000     0.390400000000     0.707400000000     0.0584179  
H        H      0.257000000000     0.441800000000     0.038800000000     0.0584179  
H        H      0.364400000000     0.456000000000     0.772200000000     0.0584179  
H        H      0.538000000000     0.504500000000     0.909300000000     0.0584179  
H        H      0.013600000000     0.595800000000     0.527800000000     0.0584179  
H        H      0.072800000000     0.584300000000     0.697300000000     0.0584179  
H        H      0.496600000000     0.735300000000     0.809100000000     0.0584179  
H        H      0.535500000000     0.746100000000     0.985100000000     0.0584179  
H        H      0.544200000000     0.964400000000     0.375600000000     0.0584179  
H        H      0.650700000000     0.707400000000     0.390400000000     0.0584179  
H        H      0.757000000000     0.038800000000     0.441800000000     0.0584179  
H        H      0.864400000000     0.772200000000     0.456000000000     0.0584179  
H        H      0.038000000000     0.909300000000     0.504500000000     0.0584179  
H        H      0.486400000000     0.472200000000     0.404200000000     0.0584179  
H        H      0.427200000000     0.302700000000     0.415700000000     0.0584179  
H        H      0.003400000000     0.190900000000     0.264700000000     0.0584179  
H        H      0.964500000000     0.014900000000     0.253900000000     0.0584179  
H        H      0.955800000000     0.624400000000     0.035600000000     0.0584179  
H        H      0.849300000000     0.609600000000     0.292600000000     0.0584179  
H        H      0.743000000000     0.558200000000     0.961200000000     0.0584179  
H        H      0.635600000000     0.544000000000     0.227800000000     0.0584179  
H        H      0.462000000000     0.495500000000     0.090700000000     0.0584179  
C        C      0.820600000000     0.279490000000     0.557250000000     0.0178264  
C        C      0.828100000000     0.299930000000     0.459610000000     0.0178264  
C        C      0.913600000000     0.366880000000     0.431300000000     0.0178264  
C        C      0.879500000000     0.373370000000     0.333070000000     0.0178264  
C        C      0.768300000000     0.310540000000     0.287320000000     0.0178264  
C        C      0.705200000000     0.295780000000     0.186820000000     0.0178264  
C        C      0.572300000000     0.274110000000     0.151470000000     0.0178264  
C        C      0.549700000000     0.267450000000     0.049830000000     0.0178264  
C        C      0.667000000000     0.283030000000     0.007610000000     0.0178264  
C        C      0.690000000000     0.281820000000     0.903580000000     0.0178264  
C        C      0.389700000000     0.075240000000     0.609760000000     0.0178264  
C        C      0.327000000000     0.225080000000     0.601020000000     0.0178264  
C        C      0.260900000000     0.029480000000     0.569920000000     0.0178264  
C        C      0.197700000000     0.186910000000     0.561570000000     0.0178264  
C        C      0.161800000000     0.086310000000     0.548490000000     0.0178264  
C        C      0.022200000000     0.046500000000     0.508820000000     0.0178264  
C        C      0.679400000000     0.442750000000     0.720510000000     0.0178264  
C        C      0.671900000000     0.540390000000     0.700070000000     0.0178264  
C        C      0.586400000000     0.568700000000     0.633120000000     0.0178264  
C        C      0.620500000000     0.666930000000     0.626630000000     0.0178264  
C        C      0.731700000000     0.712680000000     0.689460000000     0.0178264  
C        C      0.794800000000     0.813180000000     0.704220000000     0.0178264  
C        C      0.927700000000     0.848530000000     0.725890000000     0.0178264  
C        C      0.950300000000     0.950170000000     0.732550000000     0.0178264  
C        C      0.833000000000     0.992390000000     0.716970000000     0.0178264  
C        C      0.810000000000     0.096420000000     0.718180000000     0.0178264  
C        C      0.110300000000     0.390240000000     0.924760000000     0.0178264  
C        C      0.173000000000     0.398980000000     0.774920000000     0.0178264  
C        C      0.239100000000     0.430080000000     0.970520000000     0.0178264  
C        C      0.302300000000     0.438430000000     0.813090000000     0.0178264  
C        C      0.338200000000     0.451510000000     0.913690000000     0.0178264  
C        C      0.477800000000     0.491180000000     0.953500000000     0.0178264  
C        C      0.179400000000     0.720510000000     0.442750000000     0.0178264  
C        C      0.171900000000     0.700070000000     0.540390000000     0.0178264  
C        C      0.086400000000     0.633120000000     0.568700000000     0.0178264  
C        C      0.120500000000     0.626630000000     0.666930000000     0.0178264  
C        C      0.231700000000     0.689460000000     0.712680000000     0.0178264  
C        C      0.294800000000     0.704220000000     0.813180000000     0.0178264  
C        C      0.427700000000     0.725890000000     0.848530000000     0.0178264  
C        C      0.450300000000     0.732550000000     0.950170000000     0.0178264  
C        C      0.333000000000     0.716970000000     0.992390000000     0.0178264  
C        C      0.310000000000     0.718180000000     0.096420000000     0.0178264  
C        C      0.610300000000     0.924760000000     0.390240000000     0.0178264  
C        C      0.673000000000     0.774920000000     0.398980000000     0.0178264  
C        C      0.739100000000     0.970520000000     0.430080000000     0.0178264  
C        C      0.802300000000     0.813090000000     0.438430000000     0.0178264  
C        C      0.838200000000     0.913690000000     0.451510000000     0.0178264  
C        C      0.977800000000     0.953500000000     0.491180000000     0.0178264  
C        C      0.320600000000     0.557250000000     0.279490000000     0.0178264  
C        C      0.328100000000     0.459610000000     0.299930000000     0.0178264  
C        C      0.413600000000     0.431300000000     0.366880000000     0.0178264  
C        C      0.379500000000     0.333070000000     0.373370000000     0.0178264  
C        C      0.268300000000     0.287320000000     0.310540000000     0.0178264  
C        C      0.205200000000     0.186820000000     0.295780000000     0.0178264  
C        C      0.072300000000     0.151470000000     0.274110000000     0.0178264  
C        C      0.049700000000     0.049830000000     0.267450000000     0.0178264  
C        C      0.167000000000     0.007610000000     0.283030000000     0.0178264  
C        C      0.190000000000     0.903580000000     0.281820000000     0.0178264  
C        C      0.889700000000     0.609760000000     0.075240000000     0.0178264  
C        C      0.827000000000     0.601020000000     0.225080000000     0.0178264  
C        C      0.760900000000     0.569920000000     0.029480000000     0.0178264  
C        C      0.697700000000     0.561570000000     0.186910000000     0.0178264  
C        C      0.661800000000     0.548490000000     0.086310000000     0.0178264  
C        C      0.522200000000     0.508820000000     0.046500000000     0.0178264  
S        S      0.704930000000     0.243200000000     0.365200000000     0.0295093  
S        S      0.805920000000     0.306640000000     0.093800000000     0.0295093  
S        S      0.795070000000     0.634800000000     0.756800000000     0.0295093  
S        S      0.694080000000     0.906200000000     0.693360000000     0.0295093  
S        S      0.295070000000     0.756800000000     0.634800000000     0.0295093  
S        S      0.194080000000     0.693360000000     0.906200000000     0.0295093  
S        S      0.204930000000     0.365200000000     0.243200000000     0.0295093  
S        S      0.305920000000     0.093800000000     0.306640000000     0.0295093  
N        N      0.421800000000     0.171800000000     0.627560000000    -0.174648   
N        N      0.078200000000     0.372440000000     0.828200000000    -0.174648   
N        N      0.578200000000     0.828200000000     0.372440000000    -0.174648   
N        N      0.921800000000     0.627560000000     0.171800000000    -0.174648   
O        O      0.587780000000     0.272240000000     0.842000000000    -0.290368   
O        O      0.812410000000     0.290400000000     0.886560000000    -0.290368   
O        O      0.717820000000     0.227040000000     0.569780000000    -0.290368   
O        O      0.917530000000     0.317170000000     0.622490000000    -0.290368   
O        O      0.912220000000     0.158000000000     0.727760000000    -0.290368   
O        O      0.687590000000     0.113440000000     0.709600000000    -0.290368   
O        O      0.782180000000     0.430220000000     0.772960000000    -0.290368   
O        O      0.582470000000     0.377510000000     0.682830000000    -0.290368   
O        O      0.412220000000     0.727760000000     0.158000000000    -0.290368   
O        O      0.187590000000     0.709600000000     0.113440000000    -0.290368   
O        O      0.282180000000     0.772960000000     0.430220000000    -0.290368   
O        O      0.082470000000     0.682830000000     0.377510000000    -0.290368   
O        O      0.087780000000     0.842000000000     0.272240000000    -0.290368   
O        O      0.312410000000     0.886560000000     0.290400000000    -0.290368   
O        O      0.217820000000     0.569780000000     0.227040000000    -0.290368   
O        O      0.417530000000     0.622490000000     0.317170000000    -0.290368   


