data_WEMNAF_original

_audit_creation_method RASPA-1.0
_audit_creation_date 2022-1-29
_audit_author_name 'Felipe Lopes de Oliveira <felipe.lopes.oliveira@ibm.com>'

_cell_length_a    8.91
_cell_length_b    12.007
_cell_length_c    12.526
_cell_angle_alpha 77.708
_cell_angle_beta  76.629
_cell_angle_gamma 76.378
_cell_volume      1249.15

_symmetry_cell_setting          triclinic
_symmetry_space_group_name_Hall 'P 1'
_symmetry_space_group_name_H-M  'P 1'
_symmetry_Int_Tables_number     1

_symmetry_equiv_pos_as_xyz 'x,y,z'

loop_
_atom_site_label
_atom_site_type_symbol
_atom_site_fract_x
_atom_site_fract_y
_atom_site_fract_z
_atom_site_charge
Zn       Zn     0.286380000000     0.746750000000     0.903930000000     0.444763   
Zn       Zn     0.713620000000     0.253250000000     0.096070000000     0.444763   
Zn       Zn     0.000000000000     0.000000000000     0.000000000000     0.444763   
H        H      0.020400000000     0.400100000000     0.264100000000     0.0578469  
H        H      0.894700000000     0.516000000000     0.254900000000     0.0578469  
H        H      0.023200000000     0.604700000000     0.055100000000     0.0578469  
H        H      0.427200000000     0.611200000000     0.117800000000     0.0578469  
H        H      0.766300000000     0.649300000000     0.321700000000     0.0578469  
H        H      0.728400000000     0.726400000000     0.414800000000     0.0578469  
H        H      0.801100000000     0.823500000000     0.159400000000     0.0578469  
H        H      0.157200000000     0.907400000000     0.224500000000     0.0578469  
H        H      0.109900000000     0.270900000000     0.365200000000     0.0578469  
H        H      0.176500000000     0.224600000000     0.475300000000     0.0578469  
H        H      0.344400000000     0.254200000000     0.200900000000     0.0578469  
H        H      0.652900000000     0.338500000000     0.326600000000     0.0578469  
H        H      0.350400000000     0.065200000000     0.007500000000     0.0578469  
H        H      0.979600000000     0.599900000000     0.735900000000     0.0578469  
H        H      0.105300000000     0.484000000000     0.745100000000     0.0578469  
H        H      0.976800000000     0.395300000000     0.944900000000     0.0578469  
H        H      0.572800000000     0.388800000000     0.882200000000     0.0578469  
H        H      0.233700000000     0.350700000000     0.678300000000     0.0578469  
H        H      0.271600000000     0.273600000000     0.585200000000     0.0578469  
H        H      0.198900000000     0.176500000000     0.840600000000     0.0578469  
H        H      0.842800000000     0.092600000000     0.775500000000     0.0578469  
H        H      0.890100000000     0.729100000000     0.634800000000     0.0578469  
H        H      0.823500000000     0.775400000000     0.524700000000     0.0578469  
H        H      0.655600000000     0.745800000000     0.799100000000     0.0578469  
H        H      0.347100000000     0.661500000000     0.673400000000     0.0578469  
H        H      0.649600000000     0.934800000000     0.992500000000     0.0578469  
C        C      0.998300000000     0.490100000000     0.390800000000     0.0478791  
C        C      0.913000000000     0.589700000000     0.434600000000     0.0478791  
C        C      0.083100000000     0.399500000000     0.456900000000     0.0478791  
C        C      0.998200000000     0.481300000000     0.271900000000     0.0478791  
C        C      0.108300000000     0.594600000000     0.089800000000     0.0478791  
C        C      0.326900000000     0.596700000000     0.125500000000     0.0478791  
C        C      0.813000000000     0.684500000000     0.365500000000     0.0478791  
C        C      0.880700000000     0.827800000000     0.194200000000     0.0478791  
C        C      0.072300000000     0.872400000000     0.230600000000     0.0478791  
C        C      0.169800000000     0.288300000000     0.413100000000     0.0478791  
C        C      0.394200000000     0.275800000000     0.248700000000     0.0478791  
C        C      0.559500000000     0.321800000000     0.318800000000     0.0478791  
C        C      0.385300000000     0.897400000000     0.971800000000     0.0478791  
C        C      0.428100000000     0.999600000000     0.996500000000     0.0478791  
C        C      0.001700000000     0.509900000000     0.609200000000     0.0478791  
C        C      0.087000000000     0.410300000000     0.565400000000     0.0478791  
C        C      0.916900000000     0.600500000000     0.543100000000     0.0478791  
C        C      0.001800000000     0.518700000000     0.728100000000     0.0478791  
C        C      0.891700000000     0.405400000000     0.910200000000     0.0478791  
C        C      0.673100000000     0.403300000000     0.874500000000     0.0478791  
C        C      0.187000000000     0.315500000000     0.634500000000     0.0478791  
C        C      0.119300000000     0.172200000000     0.805800000000     0.0478791  
C        C      0.927700000000     0.127600000000     0.769400000000     0.0478791  
C        C      0.830200000000     0.711700000000     0.586900000000     0.0478791  
C        C      0.605800000000     0.724200000000     0.751300000000     0.0478791  
C        C      0.440500000000     0.678200000000     0.681200000000     0.0478791  
C        C      0.614700000000     0.102600000000     0.028200000000     0.0478791  
C        C      0.571900000000     0.000400000000     0.003500000000     0.0478791  
S        S      0.946770000000     0.799800000000     0.859990000000     0.678705   
S        S      0.053230000000     0.200200000000     0.140010000000     0.678705   
N        N      0.242000000000     0.632800000000     0.043600000000    -0.110828   
N        N      0.116100000000     0.540300000000     0.192300000000    -0.110828   
N        N      0.256400000000     0.539800000000     0.216200000000    -0.110828   
N        N      0.984100000000     0.896300000000     0.153000000000    -0.110828   
N        N      0.905600000000     0.766600000000     0.290800000000    -0.110828   
N        N      0.028400000000     0.794300000000     0.317300000000    -0.110828   
N        N      0.541800000000     0.290700000000     0.225300000000    -0.110828   
N        N      0.328600000000     0.296200000000     0.350500000000    -0.110828   
N        N      0.433700000000     0.326200000000     0.397200000000    -0.110828   
N        N      0.758000000000     0.367200000000     0.956400000000    -0.110828   
N        N      0.883900000000     0.459700000000     0.807700000000    -0.110828   
N        N      0.743600000000     0.460200000000     0.783800000000    -0.110828   
N        N      0.015900000000     0.103700000000     0.847000000000    -0.110828   
N        N      0.094400000000     0.233400000000     0.709200000000    -0.110828   
N        N      0.971600000000     0.205700000000     0.682700000000    -0.110828   
N        N      0.458200000000     0.709300000000     0.774700000000    -0.110828   
N        N      0.671400000000     0.703800000000     0.649500000000    -0.110828   
N        N      0.566300000000     0.673800000000     0.602800000000    -0.110828   
O        O      0.118300000000     0.760700000000     0.820300000000    -0.295119   
O        O      0.926800000000     0.868600000000     0.947400000000    -0.295119   
O        O      0.874900000000     0.698900000000     0.904500000000    -0.295119   
O        O      0.878300000000     0.868600000000     0.766300000000    -0.295119   
O        O      0.248600000000     0.908600000000     0.947400000000    -0.295119   
O        O      0.478600000000     0.802800000000     0.971300000000    -0.295119   
O        O      0.881700000000     0.239300000000     0.179700000000    -0.295119   
O        O      0.073200000000     0.131400000000     0.052600000000    -0.295119   
O        O      0.125100000000     0.301100000000     0.095500000000    -0.295119   
O        O      0.121700000000     0.131400000000     0.233700000000    -0.295119   
O        O      0.751400000000     0.091400000000     0.052600000000    -0.295119   
O        O      0.521400000000     0.197200000000     0.028700000000    -0.295119   


