data_WENDIE_original

_audit_creation_method RASPA-1.0
_audit_creation_date 2022-1-30
_audit_author_name 'Felipe Lopes de Oliveira <felipe.lopes.oliveira@ibm.com>'

_cell_length_a    7.9332
_cell_length_b    9.901
_cell_length_c    17.2163
_cell_angle_alpha 104.07
_cell_angle_beta  90
_cell_angle_gamma 113.617
_cell_volume      1194.61

_symmetry_cell_setting          triclinic
_symmetry_space_group_name_Hall 'P 1'
_symmetry_space_group_name_H-M  'P 1'
_symmetry_Int_Tables_number     1

_symmetry_equiv_pos_as_xyz 'x,y,z'

loop_
_atom_site_label
_atom_site_type_symbol
_atom_site_fract_x
_atom_site_fract_y
_atom_site_fract_z
_atom_site_charge
Zn       Zn     0.186850000000     0.832680000000     0.755720000000     0.426983   
Zn       Zn     0.333710000000     0.500920000000     0.756600000000     0.426983   
Zn       Zn     0.354170000000     0.167320000000     0.244280000000     0.426983   
Zn       Zn     0.832790000000     0.499080000000     0.243400000000     0.426983   
H        H      0.876700000000     0.786200000000     0.606300000000     0.0609691  
H        H      0.824900000000     0.685000000000     0.467400000000     0.0609691  
H        H      0.477900000000     0.282200000000     0.495000000000     0.0609691  
H        H      0.542500000000     0.372800000000     0.633500000000     0.0609691  
H        H      0.146500000000     0.066600000000     0.897200000000     0.0609691  
H        H      0.246400000000     0.144800000000     0.032500000000     0.0609691  
H        H      0.687800000000     0.496400000000     0.998200000000     0.0609691  
H        H      0.582400000000     0.422000000000     0.863900000000     0.0609691  
H        H      0.090500000000     0.213800000000     0.393700000000     0.0609691  
H        H      0.139900000000     0.315000000000     0.532600000000     0.0609691  
H        H      0.195700000000     0.717800000000     0.505000000000     0.0609691  
H        H      0.169700000000     0.627200000000     0.366500000000     0.0609691  
H        H      0.079900000000     0.933400000000     0.102800000000     0.0609691  
H        H      0.101600000000     0.855200000000     0.967500000000     0.0609691  
H        H      0.191400000000     0.503600000000     0.001800000000     0.0609691  
H        H      0.160400000000     0.578000000000     0.136100000000     0.0609691  
C        C      0.741000000000     0.659200000000     0.721600000000     0.0398736  
C        C      0.714500000000     0.592200000000     0.634500000000     0.0398736  
C        C      0.798800000000     0.683800000000     0.584400000000     0.0398736  
C        C      0.767600000000     0.623200000000     0.501100000000     0.0398736  
C        C      0.652100000000     0.472000000000     0.468800000000     0.0398736  
C        C      0.562900000000     0.382200000000     0.517800000000     0.0398736  
C        C      0.596600000000     0.437200000000     0.600600000000     0.0398736  
C        C      0.607200000000     0.406400000000     0.376600000000     0.0398736  
C        C      0.283700000000     0.187400000000     0.779400000000     0.0398736  
C        C      0.353100000000     0.242200000000     0.867300000000     0.0398736  
C        C      0.254000000000     0.154600000000     0.917700000000     0.0398736  
C        C      0.317000000000     0.199600000000     0.998300000000     0.0398736  
C        C      0.477400000000     0.320200000000     0.028900000000     0.0398736  
C        C      0.579100000000     0.409600000000     0.977800000000     0.0398736  
C        C      0.514300000000     0.365800000000     0.898000000000     0.0398736  
C        C      0.554100000000     0.361800000000     0.116900000000     0.0398736  
C        C      0.081800000000     0.340800000000     0.278400000000     0.0398736  
C        C      0.122300000000     0.407800000000     0.365500000000     0.0398736  
C        C      0.115000000000     0.316200000000     0.415600000000     0.0398736  
C        C      0.144400000000     0.376800000000     0.498900000000     0.0398736  
C        C      0.180100000000     0.528000000000     0.531200000000     0.0398736  
C        C      0.180700000000     0.617800000000     0.482200000000     0.0398736  
C        C      0.159400000000     0.562800000000     0.399400000000     0.0398736  
C        C      0.200800000000     0.593600000000     0.623400000000     0.0398736  
C        C      0.096300000000     0.812600000000     0.220600000000     0.0398736  
C        C      0.110900000000     0.757800000000     0.132700000000     0.0398736  
C        C      0.099400000000     0.845400000000     0.082300000000     0.0398736  
C        C      0.117400000000     0.800400000000     0.001700000000     0.0398736  
C        C      0.157200000000     0.679800000000     0.971100000000     0.0398736  
C        C      0.169500000000     0.590400000000     0.022200000000     0.0398736  
C        C      0.148500000000     0.634200000000     0.102000000000     0.0398736  
C        C      0.192300000000     0.638200000000     0.883100000000     0.0398736  
N        N      0.604600000000     0.634400000000     0.769400000000    -0.0854982  
N        N      0.681100000000     0.724000000000     0.844300000000    -0.0854982  
N        N      0.857500000000     0.800000000000     0.842200000000    -0.0854982  
N        N      0.897500000000     0.759600000000     0.765100000000    -0.0854982  
N        N      0.282900000000     0.277400000000     0.734400000000    -0.0854982  
N        N      0.199400000000     0.179400000000     0.660400000000    -0.0854982  
N        N      0.152900000000     0.040600000000     0.662100000000    -0.0854982  
N        N      0.208600000000     0.040000000000     0.738400000000    -0.0854982  
N        N      0.970200000000     0.365600000000     0.230600000000    -0.0854982  
N        N      0.957100000000     0.276000000000     0.155700000000    -0.0854982  
N        N      0.057500000000     0.200000000000     0.157800000000    -0.0854982  
N        N      0.137900000000     0.240400000000     0.234900000000    -0.0854982  
N        N      0.005500000000     0.722600000000     0.265600000000    -0.0854982  
N        N      0.020000000000     0.820600000000     0.339600000000    -0.0854982  
N        N      0.112300000000     0.959400000000     0.337900000000    -0.0854982  
N        N      0.168600000000     0.960000000000     0.261600000000    -0.0854982  
O        O      0.490700000000     0.280800000000     0.351600000000    -0.323928   
O        O      0.700800000000     0.497200000000     0.336200000000    -0.323928   
O        O      0.464500000000     0.272200000000     0.154700000000    -0.323928   
O        O      0.702300000000     0.469200000000     0.141100000000    -0.323928   
O        O      0.209900000000     0.719200000000     0.648400000000    -0.323928   
O        O      0.203600000000     0.502800000000     0.663800000000    -0.323928   
O        O      0.192300000000     0.727800000000     0.845300000000    -0.323928   
O        O      0.233100000000     0.530800000000     0.858900000000    -0.323928   


