data_WERKUZ_original

_audit_creation_method RASPA-1.0
_audit_creation_date 2022-1-30
_audit_author_name 'Felipe Lopes de Oliveira <felipe.lopes.oliveira@ibm.com>'

_cell_length_a    4.733
_cell_length_b    17.305
_cell_length_c    19.243
_cell_angle_alpha 90
_cell_angle_beta  90
_cell_angle_gamma 90
_cell_volume      1576.09

_symmetry_cell_setting          triclinic
_symmetry_space_group_name_Hall 'P 1'
_symmetry_space_group_name_H-M  'P 1'
_symmetry_Int_Tables_number     1

_symmetry_equiv_pos_as_xyz 'x,y,z'

loop_
_atom_site_label
_atom_site_type_symbol
_atom_site_fract_x
_atom_site_fract_y
_atom_site_fract_z
_atom_site_charge
Na       Na     0.969100000000     0.676100000000     0.549800000000     2.16578    
Na       Na     0.530900000000     0.323900000000     0.049800000000     2.16578    
Na       Na     0.030900000000     0.176100000000     0.950200000000     2.16578    
Na       Na     0.469100000000     0.823900000000     0.450200000000     2.16578    
P        P      0.992700000000     0.447570000000     0.101620000000     0.492537   
P        P      0.507300000000     0.552430000000     0.601620000000     0.492537   
P        P      0.007300000000     0.947570000000     0.398380000000     0.492537   
P        P      0.492700000000     0.052430000000     0.898380000000     0.492537   
H        H      0.770000000000     0.790000000000     0.233000000000     0.0673362  
H        H      0.770000000000     0.810000000000     0.311000000000     0.0673362  
H        H      0.080000000000     0.606000000000     0.228000000000     0.0673362  
H        H      0.760000000000     0.592000000000     0.395000000000     0.0673362  
H        H      0.220000000000     0.514000000000     0.413000000000     0.0673362  
H        H      0.770000000000     0.507000000000     0.486000000000     0.0673362  
H        H      0.210000000000     0.478000000000     0.297000000000     0.0673362  
H        H      0.010000000000     0.352000000000     0.390000000000     0.0673362  
H        H      0.630000000000     0.434000000000     0.319000000000     0.0673362  
H        H      0.560000000000     0.461000000000     0.203000000000     0.0673362  
H        H      0.790000000000     0.376000000000     0.220000000000     0.0673362  
H        H      0.730000000000     0.210000000000     0.733000000000     0.0673362  
H        H      0.730000000000     0.190000000000     0.811000000000     0.0673362  
H        H      0.420000000000     0.394000000000     0.728000000000     0.0673362  
H        H      0.740000000000     0.408000000000     0.895000000000     0.0673362  
H        H      0.280000000000     0.486000000000     0.913000000000     0.0673362  
H        H      0.730000000000     0.493000000000     0.986000000000     0.0673362  
H        H      0.290000000000     0.522000000000     0.797000000000     0.0673362  
H        H      0.490000000000     0.648000000000     0.890000000000     0.0673362  
H        H      0.870000000000     0.566000000000     0.819000000000     0.0673362  
H        H      0.940000000000     0.539000000000     0.703000000000     0.0673362  
H        H      0.710000000000     0.624000000000     0.720000000000     0.0673362  
H        H      0.230000000000     0.290000000000     0.267000000000     0.0673362  
H        H      0.230000000000     0.310000000000     0.189000000000     0.0673362  
H        H      0.920000000000     0.106000000000     0.272000000000     0.0673362  
H        H      0.240000000000     0.092000000000     0.105000000000     0.0673362  
H        H      0.780000000000     0.014000000000     0.087000000000     0.0673362  
H        H      0.230000000000     0.007000000000     0.014000000000     0.0673362  
H        H      0.790000000000     0.978000000000     0.203000000000     0.0673362  
H        H      0.990000000000     0.852000000000     0.110000000000     0.0673362  
H        H      0.370000000000     0.934000000000     0.181000000000     0.0673362  
H        H      0.440000000000     0.961000000000     0.297000000000     0.0673362  
H        H      0.210000000000     0.876000000000     0.280000000000     0.0673362  
H        H      0.270000000000     0.710000000000     0.767000000000     0.0673362  
H        H      0.270000000000     0.690000000000     0.689000000000     0.0673362  
H        H      0.580000000000     0.894000000000     0.772000000000     0.0673362  
H        H      0.260000000000     0.908000000000     0.605000000000     0.0673362  
H        H      0.720000000000     0.986000000000     0.587000000000     0.0673362  
H        H      0.270000000000     0.993000000000     0.514000000000     0.0673362  
H        H      0.710000000000     0.022000000000     0.703000000000     0.0673362  
H        H      0.510000000000     0.148000000000     0.610000000000     0.0673362  
H        H      0.130000000000     0.066000000000     0.681000000000     0.0673362  
H        H      0.060000000000     0.039000000000     0.797000000000     0.0673362  
H        H      0.290000000000     0.124000000000     0.780000000000     0.0673362  
C        C      0.192700000000     0.683000000000     0.379000000000     0.100439   
C        C      0.477500000000     0.734800000000     0.291700000000     0.100439   
C        C      0.353600000000     0.685400000000     0.241600000000     0.100439   
C        C      0.153000000000     0.634600000000     0.262800000000     0.100439   
C        C      0.869800000000     0.574600000000     0.358400000000     0.100439   
C        C      0.017700000000     0.505600000000     0.392400000000     0.100439   
C        C      0.048500000000     0.451900000000     0.330100000000     0.100439   
C        C      0.763000000000     0.462500000000     0.295500000000     0.100439   
C        C      0.738700000000     0.440000000000     0.219900000000     0.100439   
C        C      0.307300000000     0.317000000000     0.879000000000     0.100439   
C        C      0.022500000000     0.265200000000     0.791700000000     0.100439   
C        C      0.146400000000     0.314600000000     0.741600000000     0.100439   
C        C      0.347000000000     0.365400000000     0.762800000000     0.100439   
C        C      0.630200000000     0.425400000000     0.858400000000     0.100439   
C        C      0.482300000000     0.494400000000     0.892400000000     0.100439   
C        C      0.451500000000     0.548100000000     0.830100000000     0.100439   
C        C      0.737000000000     0.537500000000     0.795500000000     0.100439   
C        C      0.761300000000     0.560000000000     0.719900000000     0.100439   
C        C      0.807300000000     0.183000000000     0.121000000000     0.100439   
C        C      0.522500000000     0.234800000000     0.208300000000     0.100439   
C        C      0.646400000000     0.185400000000     0.258400000000     0.100439   
C        C      0.847000000000     0.134600000000     0.237200000000     0.100439   
C        C      0.130200000000     0.074600000000     0.141600000000     0.100439   
C        C      0.982300000000     0.005600000000     0.107600000000     0.100439   
C        C      0.951500000000     0.951900000000     0.169900000000     0.100439   
C        C      0.237000000000     0.962500000000     0.204500000000     0.100439   
C        C      0.261300000000     0.940000000000     0.280100000000     0.100439   
C        C      0.692700000000     0.817000000000     0.621000000000     0.100439   
C        C      0.977500000000     0.765200000000     0.708300000000     0.100439   
C        C      0.853600000000     0.814600000000     0.758400000000     0.100439   
C        C      0.653000000000     0.865400000000     0.737200000000     0.100439   
C        C      0.369800000000     0.925400000000     0.641600000000     0.100439   
C        C      0.517700000000     0.994400000000     0.607600000000     0.100439   
C        C      0.548500000000     0.048100000000     0.669900000000     0.100439   
C        C      0.263000000000     0.037500000000     0.704500000000     0.100439   
C        C      0.238700000000     0.060000000000     0.780100000000     0.100439   
Br       Br     0.476500000000     0.686640000000     0.148700000000    -0.172749   
Br       Br     0.023500000000     0.313360000000     0.648700000000    -0.172749   
Br       Br     0.523500000000     0.186640000000     0.351300000000    -0.172749   
Br       Br     0.976500000000     0.813360000000     0.851300000000    -0.172749   
N        N      0.077500000000     0.632100000000     0.331000000000    -0.322329   
N        N      0.395600000000     0.733100000000     0.357900000000    -0.322329   
N        N      0.688200000000     0.784100000000     0.275000000000    -0.322329   
N        N      0.422500000000     0.367900000000     0.831000000000    -0.322329   
N        N      0.104400000000     0.266900000000     0.857900000000    -0.322329   
N        N      0.811800000000     0.215900000000     0.775000000000    -0.322329   
N        N      0.922500000000     0.132100000000     0.169000000000    -0.322329   
N        N      0.604400000000     0.233100000000     0.142100000000    -0.322329   
N        N      0.311800000000     0.284100000000     0.225000000000    -0.322329   
N        N      0.577500000000     0.867900000000     0.669000000000    -0.322329   
N        N      0.895600000000     0.766900000000     0.642100000000    -0.322329   
N        N      0.188200000000     0.715900000000     0.725000000000    -0.322329   
O        O      0.113800000000     0.680800000000     0.440200000000    -0.395404   
O        O      0.829900000000     0.469100000000     0.439600000000    -0.395404   
O        O      0.110300000000     0.373800000000     0.344500000000    -0.395404   
O        O      0.707700000000     0.544900000000     0.303100000000    -0.395404   
O        O      0.949200000000     0.478900000000     0.179100000000    -0.395404   
O        O      0.716200000000     0.453100000000     0.063100000000    -0.395404   
O        O      0.118000000000     0.368800000000     0.104200000000    -0.395404   
O        O      0.204500000000     0.509100000000     0.071900000000    -0.395404   
O        O      0.386200000000     0.319200000000     0.940200000000    -0.395404   
O        O      0.670100000000     0.530900000000     0.939600000000    -0.395404   
O        O      0.389700000000     0.626200000000     0.844500000000    -0.395404   
O        O      0.792300000000     0.455100000000     0.803100000000    -0.395404   
O        O      0.550800000000     0.521100000000     0.679100000000    -0.395404   
O        O      0.783800000000     0.546900000000     0.563100000000    -0.395404   
O        O      0.382000000000     0.631200000000     0.604200000000    -0.395404   
O        O      0.295500000000     0.490900000000     0.571900000000    -0.395404   
O        O      0.886200000000     0.180800000000     0.059800000000    -0.395404   
O        O      0.170100000000     0.969100000000     0.060400000000    -0.395404   
O        O      0.889700000000     0.873800000000     0.155500000000    -0.395404   
O        O      0.292300000000     0.044900000000     0.196900000000    -0.395404   
O        O      0.050800000000     0.978900000000     0.320900000000    -0.395404   
O        O      0.283800000000     0.953100000000     0.436900000000    -0.395404   
O        O      0.882000000000     0.868800000000     0.395800000000    -0.395404   
O        O      0.795500000000     0.009100000000     0.428100000000    -0.395404   
O        O      0.613800000000     0.819200000000     0.559800000000    -0.395404   
O        O      0.329900000000     0.030900000000     0.560400000000    -0.395404   
O        O      0.610300000000     0.126200000000     0.655500000000    -0.395404   
O        O      0.207700000000     0.955100000000     0.696900000000    -0.395404   
O        O      0.449200000000     0.021100000000     0.820900000000    -0.395404   
O        O      0.216200000000     0.046900000000     0.936900000000    -0.395404   
O        O      0.618000000000     0.131200000000     0.895800000000    -0.395404   
O        O      0.704500000000     0.990900000000     0.928100000000    -0.395404   


