data_WIYFAM_original

_audit_creation_method RASPA-1.0
_audit_creation_date 2022-1-30
_audit_author_name 'Felipe Lopes de Oliveira <felipe.lopes.oliveira@ibm.com>'

_cell_length_a    11.5228
_cell_length_b    11.5228
_cell_length_c    25.7692
_cell_angle_alpha 90
_cell_angle_beta  90
_cell_angle_gamma 90
_cell_volume      3421.5

_symmetry_cell_setting          triclinic
_symmetry_space_group_name_Hall 'P 1'
_symmetry_space_group_name_H-M  'P 1'
_symmetry_Int_Tables_number     1

_symmetry_equiv_pos_as_xyz 'x,y,z'

loop_
_atom_site_label
_atom_site_type_symbol
_atom_site_fract_x
_atom_site_fract_y
_atom_site_fract_z
_atom_site_charge
Zn       Zn     0.598610000000     0.598610000000     0.792180000000     0.382866   
Zn       Zn     0.401390000000     0.401390000000     0.792180000000     0.382866   
Zn       Zn     0.401390000000     0.598610000000     0.292180000000     0.382866   
Zn       Zn     0.598610000000     0.401390000000     0.292180000000     0.382866   
Zn       Zn     0.401390000000     0.598610000000     0.707820000000     0.382866   
Zn       Zn     0.598610000000     0.401390000000     0.707820000000     0.382866   
Zn       Zn     0.598610000000     0.598610000000     0.207820000000     0.382866   
Zn       Zn     0.401390000000     0.401390000000     0.207820000000     0.382866   
H        H      0.909500000000     0.715900000000     0.812800000000     0.205269   
H        H      0.827800000000     0.645100000000     0.849800000000     0.205269   
H        H      0.958800000000     0.610600000000     0.844400000000     0.205269   
H        H      0.090500000000     0.284100000000     0.812800000000     0.205269   
H        H      0.172200000000     0.354900000000     0.849800000000     0.205269   
H        H      0.041200000000     0.389400000000     0.844400000000     0.205269   
H        H      0.284100000000     0.909500000000     0.312800000000     0.205269   
H        H      0.354900000000     0.827800000000     0.349800000000     0.205269   
H        H      0.389400000000     0.958800000000     0.344400000000     0.205269   
H        H      0.715900000000     0.090500000000     0.312800000000     0.205269   
H        H      0.645100000000     0.172200000000     0.349800000000     0.205269   
H        H      0.610600000000     0.041200000000     0.344400000000     0.205269   
H        H      0.090500000000     0.715900000000     0.687200000000     0.205269   
H        H      0.172200000000     0.645100000000     0.650200000000     0.205269   
H        H      0.041200000000     0.610600000000     0.655600000000     0.205269   
H        H      0.909500000000     0.284100000000     0.687200000000     0.205269   
H        H      0.827800000000     0.354900000000     0.650200000000     0.205269   
H        H      0.958800000000     0.389400000000     0.655600000000     0.205269   
H        H      0.715900000000     0.909500000000     0.187200000000     0.205269   
H        H      0.645100000000     0.827800000000     0.150200000000     0.205269   
H        H      0.610600000000     0.958800000000     0.155600000000     0.205269   
H        H      0.284100000000     0.090500000000     0.187200000000     0.205269   
H        H      0.354900000000     0.172200000000     0.150200000000     0.205269   
H        H      0.389400000000     0.041200000000     0.155600000000     0.205269   
H        H      0.090500000000     0.284100000000     0.187200000000     0.205269   
H        H      0.172200000000     0.354900000000     0.150200000000     0.205269   
H        H      0.041200000000     0.389400000000     0.155600000000     0.205269   
H        H      0.909500000000     0.715900000000     0.187200000000     0.205269   
H        H      0.827800000000     0.645100000000     0.150200000000     0.205269   
H        H      0.958800000000     0.610600000000     0.155600000000     0.205269   
H        H      0.715900000000     0.090500000000     0.687200000000     0.205269   
H        H      0.645100000000     0.172200000000     0.650200000000     0.205269   
H        H      0.610600000000     0.041200000000     0.655600000000     0.205269   
H        H      0.284100000000     0.909500000000     0.687200000000     0.205269   
H        H      0.354900000000     0.827800000000     0.650200000000     0.205269   
H        H      0.389400000000     0.958800000000     0.655600000000     0.205269   
H        H      0.909500000000     0.284100000000     0.312800000000     0.205269   
H        H      0.827800000000     0.354900000000     0.349800000000     0.205269   
H        H      0.958800000000     0.389400000000     0.344400000000     0.205269   
H        H      0.090500000000     0.715900000000     0.312800000000     0.205269   
H        H      0.172200000000     0.645100000000     0.349800000000     0.205269   
H        H      0.041200000000     0.610600000000     0.344400000000     0.205269   
H        H      0.284100000000     0.090500000000     0.812800000000     0.205269   
H        H      0.354900000000     0.172200000000     0.849800000000     0.205269   
H        H      0.389400000000     0.041200000000     0.844400000000     0.205269   
H        H      0.715900000000     0.909500000000     0.812800000000     0.205269   
H        H      0.645100000000     0.827800000000     0.849800000000     0.205269   
H        H      0.610600000000     0.958800000000     0.844400000000     0.205269   
H        H      0.621100000000     0.621100000000     0.955600000000     0.205269   
H        H      0.378900000000     0.378900000000     0.955600000000     0.205269   
H        H      0.378900000000     0.621100000000     0.455600000000     0.205269   
H        H      0.621100000000     0.378900000000     0.455600000000     0.205269   
H        H      0.378900000000     0.621100000000     0.544400000000     0.205269   
H        H      0.621100000000     0.378900000000     0.544400000000     0.205269   
H        H      0.621100000000     0.621100000000     0.044400000000     0.205269   
H        H      0.378900000000     0.378900000000     0.044400000000     0.205269   
C        C      0.892300000000     0.640100000000     0.826300000000    -0.148176   
C        C      0.862500000000     0.561000000000     0.782780000000    -0.148176   
C        C      0.107700000000     0.359900000000     0.826300000000    -0.148176   
C        C      0.137500000000     0.439000000000     0.782780000000    -0.148176   
C        C      0.359900000000     0.892300000000     0.326300000000    -0.148176   
C        C      0.439000000000     0.862500000000     0.282780000000    -0.148176   
C        C      0.640100000000     0.107700000000     0.326300000000    -0.148176   
C        C      0.561000000000     0.137500000000     0.282780000000    -0.148176   
C        C      0.107700000000     0.640100000000     0.673700000000    -0.148176   
C        C      0.137500000000     0.561000000000     0.717220000000    -0.148176   
C        C      0.892300000000     0.359900000000     0.673700000000    -0.148176   
C        C      0.862500000000     0.439000000000     0.717220000000    -0.148176   
C        C      0.640100000000     0.892300000000     0.173700000000    -0.148176   
C        C      0.561000000000     0.862500000000     0.217220000000    -0.148176   
C        C      0.359900000000     0.107700000000     0.173700000000    -0.148176   
C        C      0.439000000000     0.137500000000     0.217220000000    -0.148176   
C        C      0.107700000000     0.359900000000     0.173700000000    -0.148176   
C        C      0.137500000000     0.439000000000     0.217220000000    -0.148176   
C        C      0.892300000000     0.640100000000     0.173700000000    -0.148176   
C        C      0.862500000000     0.561000000000     0.217220000000    -0.148176   
C        C      0.640100000000     0.107700000000     0.673700000000    -0.148176   
C        C      0.561000000000     0.137500000000     0.717220000000    -0.148176   
C        C      0.359900000000     0.892300000000     0.673700000000    -0.148176   
C        C      0.439000000000     0.862500000000     0.717220000000    -0.148176   
C        C      0.892300000000     0.359900000000     0.326300000000    -0.148176   
C        C      0.862500000000     0.439000000000     0.282780000000    -0.148176   
C        C      0.107700000000     0.640100000000     0.326300000000    -0.148176   
C        C      0.137500000000     0.561000000000     0.282780000000    -0.148176   
C        C      0.359900000000     0.107700000000     0.826300000000    -0.148176   
C        C      0.439000000000     0.137500000000     0.782780000000    -0.148176   
C        C      0.640100000000     0.892300000000     0.826300000000    -0.148176   
C        C      0.561000000000     0.862500000000     0.782780000000    -0.148176   
C        C      0.571400000000     0.571400000000     0.973300000000    -0.148176   
C        C      0.428600000000     0.428600000000     0.973300000000    -0.148176   
C        C      0.428600000000     0.571400000000     0.473300000000    -0.148176   
C        C      0.571400000000     0.428600000000     0.473300000000    -0.148176   
C        C      0.428600000000     0.571400000000     0.526700000000    -0.148176   
C        C      0.571400000000     0.428600000000     0.526700000000    -0.148176   
C        C      0.571400000000     0.571400000000     0.026700000000    -0.148176   
C        C      0.428600000000     0.428600000000     0.026700000000    -0.148176   
C        C      0.935200000000     0.500000000000     0.750000000000    -0.148176   
C        C      0.064800000000     0.500000000000     0.750000000000    -0.148176   
C        C      0.500000000000     0.935200000000     0.250000000000    -0.148176   
C        C      0.500000000000     0.064800000000     0.250000000000    -0.148176   
C        C      0.064800000000     0.500000000000     0.250000000000    -0.148176   
C        C      0.935200000000     0.500000000000     0.250000000000    -0.148176   
C        C      0.500000000000     0.064800000000     0.750000000000    -0.148176   
C        C      0.500000000000     0.935200000000     0.750000000000    -0.148176   
C        C      0.500000000000     0.500000000000     0.888100000000    -0.148176   
C        C      0.500000000000     0.500000000000     0.946000000000    -0.148176   
C        C      0.500000000000     0.500000000000     0.388100000000    -0.148176   
C        C      0.500000000000     0.500000000000     0.446000000000    -0.148176   
C        C      0.500000000000     0.500000000000     0.611900000000    -0.148176   
C        C      0.500000000000     0.500000000000     0.554000000000    -0.148176   
C        C      0.500000000000     0.500000000000     0.111900000000    -0.148176   
C        C      0.500000000000     0.500000000000     0.054000000000    -0.148176   
N        N      0.752300000000     0.538500000000     0.770580000000    -0.178102   
N        N      0.247700000000     0.461500000000     0.770580000000    -0.178102   
N        N      0.461500000000     0.752300000000     0.270580000000    -0.178102   
N        N      0.538500000000     0.247700000000     0.270580000000    -0.178102   
N        N      0.247700000000     0.538500000000     0.729420000000    -0.178102   
N        N      0.752300000000     0.461500000000     0.729420000000    -0.178102   
N        N      0.538500000000     0.752300000000     0.229420000000    -0.178102   
N        N      0.461500000000     0.247700000000     0.229420000000    -0.178102   
N        N      0.247700000000     0.461500000000     0.229420000000    -0.178102   
N        N      0.752300000000     0.538500000000     0.229420000000    -0.178102   
N        N      0.538500000000     0.247700000000     0.729420000000    -0.178102   
N        N      0.461500000000     0.752300000000     0.729420000000    -0.178102   
N        N      0.752300000000     0.461500000000     0.270580000000    -0.178102   
N        N      0.247700000000     0.538500000000     0.270580000000    -0.178102   
N        N      0.461500000000     0.247700000000     0.770580000000    -0.178102   
N        N      0.538500000000     0.752300000000     0.770580000000    -0.178102   
O        O      0.568400000000     0.568400000000     0.866190000000    -0.34105    
O        O      0.431600000000     0.431600000000     0.866190000000    -0.34105    
O        O      0.431600000000     0.568400000000     0.366190000000    -0.34105    
O        O      0.568400000000     0.431600000000     0.366190000000    -0.34105    
O        O      0.431600000000     0.568400000000     0.633810000000    -0.34105    
O        O      0.568400000000     0.431600000000     0.633810000000    -0.34105    
O        O      0.568400000000     0.568400000000     0.133810000000    -0.34105    
O        O      0.431600000000     0.431600000000     0.133810000000    -0.34105    
O        O      0.500000000000     0.500000000000     0.750000000000    -0.34105    
O        O      0.500000000000     0.500000000000     0.250000000000    -0.34105    


