data_WOJJOV_original

_audit_creation_method RASPA-1.0
_audit_creation_date 2022-1-29
_audit_author_name 'Felipe Lopes de Oliveira <felipe.lopes.oliveira@ibm.com>'

_cell_length_a    6.6095
_cell_length_b    21.1012
_cell_length_c    21.1012
_cell_angle_alpha 90
_cell_angle_beta  90
_cell_angle_gamma 90
_cell_volume      2942.95

_symmetry_cell_setting          triclinic
_symmetry_space_group_name_Hall 'P 1'
_symmetry_space_group_name_H-M  'P 1'
_symmetry_Int_Tables_number     1

_symmetry_equiv_pos_as_xyz 'x,y,z'

loop_
_atom_site_label
_atom_site_type_symbol
_atom_site_fract_x
_atom_site_fract_y
_atom_site_fract_z
_atom_site_charge
Al       Al     0.000000000000     0.750000000000     0.750000000000     8.40167    
Al       Al     0.000000000000     0.250000000000     0.250000000000     8.40167    
Al       Al     0.000000000000     0.750000000000     0.250000000000     8.40167    
Al       Al     0.000000000000     0.250000000000     0.750000000000     8.40167    
Al       Al     0.500000000000     0.750000000000     0.750000000000     8.40167    
Al       Al     0.500000000000     0.250000000000     0.250000000000     8.40167    
Al       Al     0.500000000000     0.750000000000     0.250000000000     8.40167    
Al       Al     0.500000000000     0.250000000000     0.750000000000     8.40167    
H        H      0.470000000000     0.790000000000     0.940000000000     0.0415393  
H        H      0.061000000000     0.678000000000     0.880000000000     0.0415393  
H        H      0.350000000000     0.630000000000     0.940000000000     0.0415393  
H        H      0.470000000000     0.210000000000     0.060000000000     0.0415393  
H        H      0.061000000000     0.322000000000     0.120000000000     0.0415393  
H        H      0.350000000000     0.370000000000     0.060000000000     0.0415393  
H        H      0.470000000000     0.560000000000     0.290000000000     0.0415393  
H        H      0.061000000000     0.620000000000     0.178000000000     0.0415393  
H        H      0.350000000000     0.560000000000     0.130000000000     0.0415393  
H        H      0.470000000000     0.440000000000     0.710000000000     0.0415393  
H        H      0.061000000000     0.380000000000     0.822000000000     0.0415393  
H        H      0.350000000000     0.440000000000     0.870000000000     0.0415393  
H        H      0.530000000000     0.710000000000     0.440000000000     0.0415393  
H        H      0.939000000000     0.822000000000     0.380000000000     0.0415393  
H        H      0.650000000000     0.870000000000     0.440000000000     0.0415393  
H        H      0.530000000000     0.290000000000     0.560000000000     0.0415393  
H        H      0.939000000000     0.178000000000     0.620000000000     0.0415393  
H        H      0.650000000000     0.130000000000     0.560000000000     0.0415393  
H        H      0.530000000000     0.940000000000     0.790000000000     0.0415393  
H        H      0.939000000000     0.880000000000     0.678000000000     0.0415393  
H        H      0.650000000000     0.940000000000     0.630000000000     0.0415393  
H        H      0.530000000000     0.060000000000     0.210000000000     0.0415393  
H        H      0.939000000000     0.120000000000     0.322000000000     0.0415393  
H        H      0.650000000000     0.060000000000     0.370000000000     0.0415393  
H        H      0.530000000000     0.710000000000     0.560000000000     0.0415393  
H        H      0.939000000000     0.822000000000     0.620000000000     0.0415393  
H        H      0.650000000000     0.870000000000     0.560000000000     0.0415393  
H        H      0.530000000000     0.290000000000     0.440000000000     0.0415393  
H        H      0.939000000000     0.178000000000     0.380000000000     0.0415393  
H        H      0.650000000000     0.130000000000     0.440000000000     0.0415393  
H        H      0.530000000000     0.940000000000     0.210000000000     0.0415393  
H        H      0.939000000000     0.880000000000     0.322000000000     0.0415393  
H        H      0.650000000000     0.940000000000     0.370000000000     0.0415393  
H        H      0.530000000000     0.060000000000     0.790000000000     0.0415393  
H        H      0.939000000000     0.120000000000     0.678000000000     0.0415393  
H        H      0.650000000000     0.060000000000     0.630000000000     0.0415393  
H        H      0.470000000000     0.790000000000     0.060000000000     0.0415393  
H        H      0.061000000000     0.678000000000     0.120000000000     0.0415393  
H        H      0.350000000000     0.630000000000     0.060000000000     0.0415393  
H        H      0.470000000000     0.210000000000     0.940000000000     0.0415393  
H        H      0.061000000000     0.322000000000     0.880000000000     0.0415393  
H        H      0.350000000000     0.370000000000     0.940000000000     0.0415393  
H        H      0.470000000000     0.560000000000     0.710000000000     0.0415393  
H        H      0.061000000000     0.620000000000     0.822000000000     0.0415393  
H        H      0.350000000000     0.560000000000     0.870000000000     0.0415393  
H        H      0.470000000000     0.440000000000     0.290000000000     0.0415393  
H        H      0.061000000000     0.380000000000     0.178000000000     0.0415393  
H        H      0.350000000000     0.440000000000     0.130000000000     0.0415393  
C        C      0.730000000000     0.747000000000     0.861000000000     0.199752   
C        C      0.740000000000     0.743000000000     0.932000000000     0.199752   
C        C      0.903000000000     0.711000000000     0.966000000000     0.199752   
C        C      0.590000000000     0.770000000000     0.966000000000     0.199752   
C        C      0.061000000000     0.678000000000     0.932000000000     0.199752   
C        C      0.228000000000     0.650000000000     0.966000000000     0.199752   
C        C      0.730000000000     0.253000000000     0.139000000000     0.199752   
C        C      0.740000000000     0.257000000000     0.068000000000     0.199752   
C        C      0.903000000000     0.289000000000     0.034000000000     0.199752   
C        C      0.590000000000     0.230000000000     0.034000000000     0.199752   
C        C      0.061000000000     0.322000000000     0.068000000000     0.199752   
C        C      0.228000000000     0.350000000000     0.034000000000     0.199752   
C        C      0.730000000000     0.639000000000     0.247000000000     0.199752   
C        C      0.740000000000     0.568000000000     0.243000000000     0.199752   
C        C      0.903000000000     0.534000000000     0.211000000000     0.199752   
C        C      0.590000000000     0.534000000000     0.270000000000     0.199752   
C        C      0.061000000000     0.568000000000     0.178000000000     0.199752   
C        C      0.228000000000     0.534000000000     0.150000000000     0.199752   
C        C      0.730000000000     0.361000000000     0.753000000000     0.199752   
C        C      0.740000000000     0.432000000000     0.757000000000     0.199752   
C        C      0.903000000000     0.466000000000     0.789000000000     0.199752   
C        C      0.590000000000     0.466000000000     0.730000000000     0.199752   
C        C      0.061000000000     0.432000000000     0.822000000000     0.199752   
C        C      0.228000000000     0.466000000000     0.850000000000     0.199752   
C        C      0.270000000000     0.753000000000     0.361000000000     0.199752   
C        C      0.260000000000     0.757000000000     0.432000000000     0.199752   
C        C      0.097000000000     0.789000000000     0.466000000000     0.199752   
C        C      0.410000000000     0.730000000000     0.466000000000     0.199752   
C        C      0.939000000000     0.822000000000     0.432000000000     0.199752   
C        C      0.772000000000     0.850000000000     0.466000000000     0.199752   
C        C      0.270000000000     0.247000000000     0.639000000000     0.199752   
C        C      0.260000000000     0.243000000000     0.568000000000     0.199752   
C        C      0.097000000000     0.211000000000     0.534000000000     0.199752   
C        C      0.410000000000     0.270000000000     0.534000000000     0.199752   
C        C      0.939000000000     0.178000000000     0.568000000000     0.199752   
C        C      0.772000000000     0.150000000000     0.534000000000     0.199752   
C        C      0.270000000000     0.861000000000     0.747000000000     0.199752   
C        C      0.260000000000     0.932000000000     0.743000000000     0.199752   
C        C      0.097000000000     0.966000000000     0.711000000000     0.199752   
C        C      0.410000000000     0.966000000000     0.770000000000     0.199752   
C        C      0.939000000000     0.932000000000     0.678000000000     0.199752   
C        C      0.772000000000     0.966000000000     0.650000000000     0.199752   
C        C      0.270000000000     0.139000000000     0.253000000000     0.199752   
C        C      0.260000000000     0.068000000000     0.257000000000     0.199752   
C        C      0.097000000000     0.034000000000     0.289000000000     0.199752   
C        C      0.410000000000     0.034000000000     0.230000000000     0.199752   
C        C      0.939000000000     0.068000000000     0.322000000000     0.199752   
C        C      0.772000000000     0.034000000000     0.350000000000     0.199752   
C        C      0.270000000000     0.753000000000     0.639000000000     0.199752   
C        C      0.260000000000     0.757000000000     0.568000000000     0.199752   
C        C      0.097000000000     0.789000000000     0.534000000000     0.199752   
C        C      0.410000000000     0.730000000000     0.534000000000     0.199752   
C        C      0.939000000000     0.822000000000     0.568000000000     0.199752   
C        C      0.772000000000     0.850000000000     0.534000000000     0.199752   
C        C      0.270000000000     0.247000000000     0.361000000000     0.199752   
C        C      0.260000000000     0.243000000000     0.432000000000     0.199752   
C        C      0.097000000000     0.211000000000     0.466000000000     0.199752   
C        C      0.410000000000     0.270000000000     0.466000000000     0.199752   
C        C      0.939000000000     0.178000000000     0.432000000000     0.199752   
C        C      0.772000000000     0.150000000000     0.466000000000     0.199752   
C        C      0.270000000000     0.861000000000     0.253000000000     0.199752   
C        C      0.260000000000     0.932000000000     0.257000000000     0.199752   
C        C      0.097000000000     0.966000000000     0.289000000000     0.199752   
C        C      0.410000000000     0.966000000000     0.230000000000     0.199752   
C        C      0.939000000000     0.932000000000     0.322000000000     0.199752   
C        C      0.772000000000     0.966000000000     0.350000000000     0.199752   
C        C      0.270000000000     0.139000000000     0.747000000000     0.199752   
C        C      0.260000000000     0.068000000000     0.743000000000     0.199752   
C        C      0.097000000000     0.034000000000     0.711000000000     0.199752   
C        C      0.410000000000     0.034000000000     0.770000000000     0.199752   
C        C      0.939000000000     0.068000000000     0.678000000000     0.199752   
C        C      0.772000000000     0.034000000000     0.650000000000     0.199752   
C        C      0.730000000000     0.747000000000     0.139000000000     0.199752   
C        C      0.740000000000     0.743000000000     0.068000000000     0.199752   
C        C      0.903000000000     0.711000000000     0.034000000000     0.199752   
C        C      0.590000000000     0.770000000000     0.034000000000     0.199752   
C        C      0.061000000000     0.678000000000     0.068000000000     0.199752   
C        C      0.228000000000     0.650000000000     0.034000000000     0.199752   
C        C      0.730000000000     0.253000000000     0.861000000000     0.199752   
C        C      0.740000000000     0.257000000000     0.932000000000     0.199752   
C        C      0.903000000000     0.289000000000     0.966000000000     0.199752   
C        C      0.590000000000     0.230000000000     0.966000000000     0.199752   
C        C      0.061000000000     0.322000000000     0.932000000000     0.199752   
C        C      0.228000000000     0.350000000000     0.966000000000     0.199752   
C        C      0.730000000000     0.639000000000     0.753000000000     0.199752   
C        C      0.740000000000     0.568000000000     0.757000000000     0.199752   
C        C      0.903000000000     0.534000000000     0.789000000000     0.199752   
C        C      0.590000000000     0.534000000000     0.730000000000     0.199752   
C        C      0.061000000000     0.568000000000     0.822000000000     0.199752   
C        C      0.228000000000     0.534000000000     0.850000000000     0.199752   
C        C      0.730000000000     0.361000000000     0.247000000000     0.199752   
C        C      0.740000000000     0.432000000000     0.243000000000     0.199752   
C        C      0.903000000000     0.466000000000     0.211000000000     0.199752   
C        C      0.590000000000     0.466000000000     0.270000000000     0.199752   
C        C      0.061000000000     0.432000000000     0.178000000000     0.199752   
C        C      0.228000000000     0.466000000000     0.150000000000     0.199752   
O        O      0.883000000000     0.752000000000     0.829000000000    -2.20959    
O        O      0.553000000000     0.749000000000     0.835000000000    -2.20959    
O        O      0.883000000000     0.248000000000     0.171000000000    -2.20959    
O        O      0.553000000000     0.251000000000     0.165000000000    -2.20959    
O        O      0.883000000000     0.671000000000     0.252000000000    -2.20959    
O        O      0.553000000000     0.665000000000     0.249000000000    -2.20959    
O        O      0.883000000000     0.329000000000     0.748000000000    -2.20959    
O        O      0.553000000000     0.335000000000     0.751000000000    -2.20959    
O        O      0.117000000000     0.748000000000     0.329000000000    -2.20959    
O        O      0.447000000000     0.751000000000     0.335000000000    -2.20959    
O        O      0.117000000000     0.252000000000     0.671000000000    -2.20959    
O        O      0.447000000000     0.249000000000     0.665000000000    -2.20959    
O        O      0.117000000000     0.829000000000     0.752000000000    -2.20959    
O        O      0.447000000000     0.835000000000     0.749000000000    -2.20959    
O        O      0.117000000000     0.171000000000     0.248000000000    -2.20959    
O        O      0.447000000000     0.165000000000     0.251000000000    -2.20959    
O        O      0.117000000000     0.748000000000     0.671000000000    -2.20959    
O        O      0.447000000000     0.751000000000     0.665000000000    -2.20959    
O        O      0.117000000000     0.252000000000     0.329000000000    -2.20959    
O        O      0.447000000000     0.249000000000     0.335000000000    -2.20959    
O        O      0.117000000000     0.829000000000     0.248000000000    -2.20959    
O        O      0.447000000000     0.835000000000     0.251000000000    -2.20959    
O        O      0.117000000000     0.171000000000     0.752000000000    -2.20959    
O        O      0.447000000000     0.165000000000     0.749000000000    -2.20959    
O        O      0.883000000000     0.752000000000     0.171000000000    -2.20959    
O        O      0.553000000000     0.749000000000     0.165000000000    -2.20959    
O        O      0.883000000000     0.248000000000     0.829000000000    -2.20959    
O        O      0.553000000000     0.251000000000     0.835000000000    -2.20959    
O        O      0.883000000000     0.671000000000     0.748000000000    -2.20959    
O        O      0.553000000000     0.665000000000     0.751000000000    -2.20959    
O        O      0.883000000000     0.329000000000     0.252000000000    -2.20959    
O        O      0.553000000000     0.335000000000     0.249000000000    -2.20959    
O        O      0.715000000000     0.781000000000     0.719000000000    -2.20959    
O        O      0.715000000000     0.219000000000     0.281000000000    -2.20959    
O        O      0.715000000000     0.781000000000     0.281000000000    -2.20959    
O        O      0.715000000000     0.219000000000     0.719000000000    -2.20959    
O        O      0.285000000000     0.719000000000     0.219000000000    -2.20959    
O        O      0.285000000000     0.281000000000     0.781000000000    -2.20959    
O        O      0.285000000000     0.719000000000     0.781000000000    -2.20959    
O        O      0.285000000000     0.281000000000     0.219000000000    -2.20959    


