data_XADGAM_original

_audit_creation_method RASPA-1.0
_audit_creation_date 2022-1-29
_audit_author_name 'Felipe Lopes de Oliveira <felipe.lopes.oliveira@ibm.com>'

_cell_length_a    10.9838
_cell_length_b    14.4336
_cell_length_c    16.1229
_cell_angle_alpha 90
_cell_angle_beta  92.8671
_cell_angle_gamma 90
_cell_volume      2552.86

_symmetry_cell_setting          triclinic
_symmetry_space_group_name_Hall 'P 1'
_symmetry_space_group_name_H-M  'P 1'
_symmetry_Int_Tables_number     1

_symmetry_equiv_pos_as_xyz 'x,y,z'

loop_
_atom_site_label
_atom_site_type_symbol
_atom_site_fract_x
_atom_site_fract_y
_atom_site_fract_z
_atom_site_charge
Zn       Zn     0.966890000000     0.624740000000     0.965840000000     0.414846   
Zn       Zn     0.476370000000     0.147600000000     0.588830000000     0.414846   
Zn       Zn     0.033110000000     0.124740000000     0.034160000000     0.414846   
Zn       Zn     0.523630000000     0.647600000000     0.411170000000     0.414846   
H        H      0.695500000000     0.899200000000     0.919400000000     0.0584002  
H        H      0.587400000000     0.000300000000     0.832600000000     0.0584002  
H        H      0.722700000000     0.935000000000     0.572500000000     0.0584002  
H        H      0.851900000000     0.827800000000     0.516300000000     0.0584002  
H        H      0.952900000000     0.718200000000     0.605800000000     0.0584002  
H        H      0.933600000000     0.725200000000     0.743400000000     0.0584002  
H        H      0.376400000000     0.264000000000     0.836600000000     0.0584002  
H        H      0.273800000000     0.356200000000     0.929200000000     0.0584002  
H        H      0.110200000000     0.596800000000     0.764100000000     0.0584002  
H        H      0.122400000000     0.632400000000     0.625500000000     0.0584002  
H        H      0.216600000000     0.535800000000     0.536500000000     0.0584002  
H        H      0.304900000000     0.401800000000     0.582600000000     0.0584002  
H        H      0.509400000000     0.984500000000     0.477300000000     0.0584002  
H        H      0.417400000000     0.907200000000     0.367300000000     0.0584002  
H        H      0.109700000000     0.036200000000     0.413200000000     0.0584002  
H        H      0.212300000000     0.117300000000     0.517800000000     0.0584002  
H        H      0.281100000000     0.679000000000     0.204400000000     0.0584002  
H        H      0.189100000000     0.603200000000     0.094200000000     0.0584002  
H        H      0.971100000000     0.809200000000     0.045700000000     0.0584002  
H        H      0.057100000000     0.897400000000     0.151600000000     0.0584002  
H        H      0.416000000000     0.248100000000     0.423600000000     0.0584002  
H        H      0.513300000000     0.323600000000     0.319900000000     0.0584002  
H        H      0.828000000000     0.293900000000     0.453300000000     0.0584002  
H        H      0.730400000000     0.217800000000     0.551600000000     0.0584002  
H        H      0.625300000000     0.533700000000     0.140200000000     0.0584002  
H        H      0.725600000000     0.618500000000     0.043400000000     0.0584002  
H        H      0.014100000000     0.456800000000     0.076500000000     0.0584002  
H        H      0.926200000000     0.386000000000     0.188000000000     0.0584002  
H        H      0.304500000000     0.399200000000     0.080600000000     0.0584002  
H        H      0.412600000000     0.500300000000     0.167400000000     0.0584002  
H        H      0.277300000000     0.435000000000     0.427500000000     0.0584002  
H        H      0.148100000000     0.327800000000     0.483700000000     0.0584002  
H        H      0.047100000000     0.218200000000     0.394200000000     0.0584002  
H        H      0.066400000000     0.225200000000     0.256600000000     0.0584002  
H        H      0.623600000000     0.764000000000     0.163400000000     0.0584002  
H        H      0.726200000000     0.856200000000     0.070800000000     0.0584002  
H        H      0.889800000000     0.096800000000     0.235900000000     0.0584002  
H        H      0.877600000000     0.132400000000     0.374500000000     0.0584002  
H        H      0.783400000000     0.035800000000     0.463500000000     0.0584002  
H        H      0.695100000000     0.901800000000     0.417400000000     0.0584002  
H        H      0.490600000000     0.484500000000     0.522700000000     0.0584002  
H        H      0.582600000000     0.407200000000     0.632700000000     0.0584002  
H        H      0.890300000000     0.536200000000     0.586800000000     0.0584002  
H        H      0.787700000000     0.617300000000     0.482200000000     0.0584002  
H        H      0.718900000000     0.179000000000     0.795600000000     0.0584002  
H        H      0.810900000000     0.103200000000     0.905800000000     0.0584002  
H        H      0.028900000000     0.309200000000     0.954300000000     0.0584002  
H        H      0.942900000000     0.397400000000     0.848400000000     0.0584002  
H        H      0.584000000000     0.748100000000     0.576400000000     0.0584002  
H        H      0.486700000000     0.823600000000     0.680100000000     0.0584002  
H        H      0.172000000000     0.793900000000     0.546700000000     0.0584002  
H        H      0.269600000000     0.717800000000     0.448400000000     0.0584002  
H        H      0.374700000000     0.033700000000     0.859800000000     0.0584002  
H        H      0.274400000000     0.118500000000     0.956600000000     0.0584002  
H        H      0.985900000000     0.956800000000     0.923500000000     0.0584002  
H        H      0.073800000000     0.886000000000     0.812000000000     0.0584002  
C        C      0.841500000000     0.761400000000     0.890500000000     0.00891637 
C        C      0.782100000000     0.831700000000     0.833700000000     0.00891637 
C        C      0.706100000000     0.896400000000     0.862600000000     0.00891637 
C        C      0.642500000000     0.959300000000     0.810600000000     0.00891637 
C        C      0.661500000000     0.960400000000     0.726400000000     0.00891637 
C        C      0.763500000000     0.892200000000     0.606900000000     0.00891637 
C        C      0.840400000000     0.828400000000     0.573100000000     0.00891637 
C        C      0.902500000000     0.762800000000     0.627700000000     0.00891637 
C        C      0.888500000000     0.765500000000     0.709000000000     0.00891637 
C        C      0.805400000000     0.828900000000     0.745300000000     0.00891637 
C        C      0.746100000000     0.893300000000     0.692200000000     0.00891637 
C        C      0.588500000000     0.030600000000     0.673200000000     0.00891637 
C        C      0.388400000000     0.268700000000     0.676300000000     0.00891637 
C        C      0.327200000000     0.334200000000     0.734500000000     0.00891637 
C        C      0.332200000000     0.315100000000     0.816800000000     0.00891637 
C        C      0.270900000000     0.371700000000     0.873100000000     0.00891637 
C        C      0.207000000000     0.449600000000     0.846500000000     0.00891637 
C        C      0.150500000000     0.557000000000     0.729300000000     0.00891637 
C        C      0.157400000000     0.577800000000     0.645900000000     0.00891637 
C        C      0.214500000000     0.520000000000     0.592400000000     0.00891637 
C        C      0.267700000000     0.440400000000     0.620000000000     0.00891637 
C        C      0.267300000000     0.414900000000     0.704500000000     0.00891637 
C        C      0.205200000000     0.475100000000     0.761500000000     0.00891637 
C        C      0.142900000000     0.501000000000     0.912700000000     0.00891637 
C        C      0.428600000000     0.998500000000     0.462400000000     0.00891637 
C        C      0.372700000000     0.949200000000     0.397300000000     0.00891637 
C        C      0.256500000000     0.961900000000     0.378000000000     0.00891637 
C        C      0.192600000000     0.026400000000     0.424300000000     0.00891637 
C        C      0.255400000000     0.075100000000     0.487000000000     0.00891637 
C        C      0.184300000000     0.916100000000     0.308600000000     0.00891637 
C        C      0.234200000000     0.842700000000     0.269000000000     0.00891637 
C        C      0.175100000000     0.796700000000     0.195800000000     0.00891637 
C        C      0.217000000000     0.706700000000     0.173900000000     0.00891637 
C        C      0.161700000000     0.662100000000     0.107700000000     0.00891637 
C        C      0.034100000000     0.783200000000     0.078600000000     0.00891637 
C        C      0.083500000000     0.837100000000     0.143300000000     0.00891637 
C        C      0.499700000000     0.257500000000     0.429300000000     0.00891637 
C        C      0.558300000000     0.302200000000     0.366400000000     0.00891637 
C        C      0.686700000000     0.315400000000     0.372700000000     0.00891637 
C        C      0.744500000000     0.284100000000     0.445300000000     0.00891637 
C        C      0.685700000000     0.239900000000     0.505200000000     0.00891637 
C        C      0.755500000000     0.353600000000     0.306400000000     0.00891637 
C        C      0.698200000000     0.403800000000     0.245000000000     0.00891637 
C        C      0.768500000000     0.451100000000     0.178500000000     0.00891637 
C        C      0.706400000000     0.520700000000     0.130900000000     0.00891637 
C        C      0.765400000000     0.569600000000     0.070800000000     0.00891637 
C        C      0.937800000000     0.475800000000     0.092300000000     0.00891637 
C        C      0.882600000000     0.431000000000     0.157900000000     0.00891637 
C        C      0.158500000000     0.261400000000     0.109500000000     0.00891637 
C        C      0.217900000000     0.331700000000     0.166300000000     0.00891637 
C        C      0.293900000000     0.396400000000     0.137400000000     0.00891637 
C        C      0.357500000000     0.459300000000     0.189400000000     0.00891637 
C        C      0.338500000000     0.460400000000     0.273600000000     0.00891637 
C        C      0.236500000000     0.392200000000     0.393100000000     0.00891637 
C        C      0.159600000000     0.328400000000     0.426900000000     0.00891637 
C        C      0.097500000000     0.262800000000     0.372300000000     0.00891637 
C        C      0.111500000000     0.265500000000     0.291000000000     0.00891637 
C        C      0.194600000000     0.328900000000     0.254700000000     0.00891637 
C        C      0.253900000000     0.393300000000     0.307800000000     0.00891637 
C        C      0.411500000000     0.530600000000     0.326800000000     0.00891637 
C        C      0.611600000000     0.768700000000     0.323700000000     0.00891637 
C        C      0.672800000000     0.834200000000     0.265500000000     0.00891637 
C        C      0.667800000000     0.815100000000     0.183200000000     0.00891637 
C        C      0.729100000000     0.871700000000     0.126900000000     0.00891637 
C        C      0.793000000000     0.949600000000     0.153500000000     0.00891637 
C        C      0.849500000000     0.057000000000     0.270700000000     0.00891637 
C        C      0.842600000000     0.077800000000     0.354100000000     0.00891637 
C        C      0.785500000000     0.020000000000     0.407600000000     0.00891637 
C        C      0.732300000000     0.940400000000     0.380000000000     0.00891637 
C        C      0.732700000000     0.914900000000     0.295500000000     0.00891637 
C        C      0.794800000000     0.975100000000     0.238500000000     0.00891637 
C        C      0.857100000000     0.001000000000     0.087300000000     0.00891637 
C        C      0.571400000000     0.498500000000     0.537600000000     0.00891637 
C        C      0.627300000000     0.449200000000     0.602700000000     0.00891637 
C        C      0.743500000000     0.461900000000     0.622000000000     0.00891637 
C        C      0.807400000000     0.526400000000     0.575700000000     0.00891637 
C        C      0.744600000000     0.575100000000     0.513000000000     0.00891637 
C        C      0.815700000000     0.416100000000     0.691400000000     0.00891637 
C        C      0.765800000000     0.342700000000     0.731000000000     0.00891637 
C        C      0.824900000000     0.296700000000     0.804200000000     0.00891637 
C        C      0.783000000000     0.206700000000     0.826100000000     0.00891637 
C        C      0.838300000000     0.162100000000     0.892300000000     0.00891637 
C        C      0.965900000000     0.283200000000     0.921400000000     0.00891637 
C        C      0.916500000000     0.337100000000     0.856700000000     0.00891637 
C        C      0.500300000000     0.757500000000     0.570700000000     0.00891637 
C        C      0.441700000000     0.802200000000     0.633600000000     0.00891637 
C        C      0.313300000000     0.815400000000     0.627300000000     0.00891637 
C        C      0.255500000000     0.784100000000     0.554700000000     0.00891637 
C        C      0.314300000000     0.739900000000     0.494800000000     0.00891637 
C        C      0.244500000000     0.853600000000     0.693600000000     0.00891637 
C        C      0.301800000000     0.903800000000     0.755000000000     0.00891637 
C        C      0.231500000000     0.951100000000     0.821500000000     0.00891637 
C        C      0.293600000000     0.020700000000     0.869100000000     0.00891637 
C        C      0.234600000000     0.069600000000     0.929200000000     0.00891637 
C        C      0.062200000000     0.975800000000     0.907700000000     0.00891637 
C        C      0.117400000000     0.931000000000     0.842100000000     0.00891637 
N        N      0.374600000000     0.064700000000     0.505300000000    -0.165154   
N        N      0.067700000000     0.700300000000     0.060100000000    -0.165154   
N        N      0.562000000000     0.226700000000     0.499700000000    -0.165154   
N        N      0.879700000000     0.547300000000     0.051500000000    -0.165154   
N        N      0.625400000000     0.564700000000     0.494700000000    -0.165154   
N        N      0.932300000000     0.200300000000     0.939900000000    -0.165154   
N        N      0.438000000000     0.726700000000     0.500300000000    -0.165154   
N        N      0.120300000000     0.047300000000     0.948500000000    -0.165154   
O        O      0.951700000000     0.739500000000     0.883400000000    -0.279034   
O        O      0.782000000000     0.736500000000     0.951500000000    -0.279034   
O        O      0.636000000000     0.069100000000     0.613700000000    -0.279034   
O        O      0.483300000000     0.048900000000     0.693400000000    -0.279034   
O        O      0.503300000000     0.255900000000     0.688600000000    -0.279034   
O        O      0.328600000000     0.231400000000     0.619600000000    -0.279034   
O        O      0.173200000000     0.491000000000     0.984600000000    -0.279034   
O        O      0.054200000000     0.552200000000     0.887000000000    -0.279034   
O        O      0.048300000000     0.239500000000     0.116600000000    -0.279034   
O        O      0.218000000000     0.236500000000     0.048500000000    -0.279034   
O        O      0.364000000000     0.569100000000     0.386300000000    -0.279034   
O        O      0.516700000000     0.548900000000     0.306600000000    -0.279034   
O        O      0.496700000000     0.755900000000     0.311400000000    -0.279034   
O        O      0.671400000000     0.731400000000     0.380400000000    -0.279034   
O        O      0.826800000000     0.991000000000     0.015400000000    -0.279034   
O        O      0.945800000000     0.052200000000     0.113000000000    -0.279034   


