data_XAMHEA_original

_audit_creation_method RASPA-1.0
_audit_creation_date 2022-1-30
_audit_author_name 'Felipe Lopes de Oliveira <felipe.lopes.oliveira@ibm.com>'

_cell_length_a    17.1168
_cell_length_b    17.2215
_cell_length_c    17.2215
_cell_angle_alpha 90
_cell_angle_beta  90
_cell_angle_gamma 90
_cell_volume      5076.5

_symmetry_cell_setting          triclinic
_symmetry_space_group_name_Hall 'P 1'
_symmetry_space_group_name_H-M  'P 1'
_symmetry_Int_Tables_number     1

_symmetry_equiv_pos_as_xyz 'x,y,z'

loop_
_atom_site_label
_atom_site_type_symbol
_atom_site_fract_x
_atom_site_fract_y
_atom_site_fract_z
_atom_site_charge
Zn       Zn     0.055190000000     0.934620000000     0.434620000000     0.471583   
Zn       Zn     0.055190000000     0.065380000000     0.565380000000     0.471583   
Zn       Zn     0.184390000000     0.934370000000     0.565630000000     0.471583   
Zn       Zn     0.184390000000     0.065630000000     0.434370000000     0.471583   
Zn       Zn     0.944810000000     0.434620000000     0.065380000000     0.471583   
Zn       Zn     0.944810000000     0.565380000000     0.934620000000     0.471583   
Zn       Zn     0.815610000000     0.565630000000     0.065630000000     0.471583   
Zn       Zn     0.815610000000     0.434370000000     0.934370000000     0.471583   
H        H      0.045050000000     0.897890000000     0.197810000000     0.0466892  
H        H      0.048460000000     0.896420000000     0.050680000000     0.0466892  
H        H      0.185440000000     0.100130000000     0.201620000000     0.0466892  
H        H      0.504650000000     0.889670000000     0.698600000000     0.0466892  
H        H      0.264010000000     0.213270000000     0.042240000000     0.0466892  
H        H      0.269920000000     0.145970000000     0.126630000000     0.0466892  
H        H      0.182260000000     0.208560000000     0.113380000000     0.0466892  
H        H      0.045050000000     0.102110000000     0.802190000000     0.0466892  
H        H      0.048460000000     0.103580000000     0.949320000000     0.0466892  
H        H      0.186030000000     0.899090000000     0.800070000000     0.0466892  
H        H      0.207540000000     0.767440000000     0.938460000000     0.0466892  
H        H      0.295200000000     0.830030000000     0.925210000000     0.0466892  
H        H      0.213450000000     0.834740000000     0.854070000000     0.0466892  
H        H      0.045050000000     0.302190000000     0.602110000000     0.0466892  
H        H      0.048460000000     0.449320000000     0.603580000000     0.0466892  
H        H      0.186030000000     0.300070000000     0.399090000000     0.0466892  
H        H      0.546350000000     0.798940000000     0.656930000000     0.0466892  
H        H      0.213450000000     0.354070000000     0.334740000000     0.0466892  
H        H      0.295200000000     0.425210000000     0.330030000000     0.0466892  
H        H      0.207540000000     0.438460000000     0.267440000000     0.0466892  
H        H      0.045050000000     0.697810000000     0.397890000000     0.0466892  
H        H      0.048460000000     0.550680000000     0.396420000000     0.0466892  
H        H      0.185440000000     0.701620000000     0.600130000000     0.0466892  
H        H      0.818400000000     0.090660000000     0.590660000000     0.0466892  
H        H      0.669900000000     0.089210000000     0.589210000000     0.0466892  
H        H      0.818400000000     0.909340000000     0.409340000000     0.0466892  
H        H      0.669900000000     0.910790000000     0.410790000000     0.0466892  
H        H      0.418650000000     0.908810000000     0.591190000000     0.0466892  
H        H      0.462950000000     0.848000000000     0.607870000000     0.0466892  
H        H      0.418650000000     0.091190000000     0.408810000000     0.0466892  
H        H      0.954950000000     0.197810000000     0.102110000000     0.0466892  
H        H      0.951540000000     0.050680000000     0.103580000000     0.0466892  
H        H      0.813970000000     0.199930000000     0.899090000000     0.0466892  
H        H      0.519430000000     0.678520000000     0.102090000000     0.0466892  
H        H      0.816570000000     0.099510000000     0.781670000000     0.0466892  
H        H      0.743970000000     0.136510000000     0.853160000000     0.0466892  
H        H      0.723270000000     0.046230000000     0.797380000000     0.0466892  
H        H      0.954950000000     0.802190000000     0.897890000000     0.0466892  
H        H      0.951540000000     0.949320000000     0.896420000000     0.0466892  
H        H      0.813970000000     0.800070000000     0.100910000000     0.0466892  
H        H      0.799270000000     0.858060000000     0.175900000000     0.0466892  
H        H      0.705970000000     0.911340000000     0.160200000000     0.0466892  
H        H      0.778570000000     0.948340000000     0.231690000000     0.0466892  
H        H      0.954950000000     0.602110000000     0.697810000000     0.0466892  
H        H      0.951540000000     0.603580000000     0.550680000000     0.0466892  
H        H      0.814560000000     0.399870000000     0.701620000000     0.0466892  
H        H      0.447190000000     0.682790000000     0.182790000000     0.0466892  
H        H      0.954950000000     0.397890000000     0.302190000000     0.0466892  
H        H      0.951540000000     0.396420000000     0.449320000000     0.0466892  
H        H      0.813970000000     0.600910000000     0.300070000000     0.0466892  
H        H      0.705970000000     0.660200000000     0.411340000000     0.0466892  
H        H      0.799270000000     0.675900000000     0.358060000000     0.0466892  
H        H      0.778570000000     0.731690000000     0.448340000000     0.0466892  
H        H      0.181600000000     0.590660000000     0.909340000000     0.0466892  
H        H      0.330100000000     0.589210000000     0.910790000000     0.0466892  
H        H      0.181600000000     0.409340000000     0.090660000000     0.0466892  
H        H      0.330100000000     0.410790000000     0.089210000000     0.0466892  
H        H      0.581350000000     0.591190000000     0.091190000000     0.0466892  
H        H      0.519430000000     0.602090000000     0.178520000000     0.0466892  
H        H      0.581350000000     0.408810000000     0.908810000000     0.0466892  
H        H      0.187530000000     0.548910000000     0.597670000000     0.0466892  
H        H      0.566840000000     0.089120000000     0.410880000000     0.0466892  
H        H      0.812470000000     0.402330000000     0.548910000000     0.0466892  
H        H      0.433160000000     0.410880000000     0.910880000000     0.0466892  
C        C      0.117300000000     0.000500000000     0.290800000000     0.0267137  
C        C      0.115300000000     0.999500000000     0.204500000000     0.0267137  
C        C      0.078700000000     0.945000000000     0.165500000000     0.0267137  
C        C      0.080500000000     0.944000000000     0.083900000000     0.0267137  
C        C      0.118600000000     0.997100000000     0.044200000000     0.0267137  
C        C      0.154300000000     0.050600000000     0.081700000000     0.0267137  
C        C      0.153500000000     0.052900000000     0.167800000000     0.0267137  
C        C      0.229100000000     0.173400000000     0.082100000000     0.0267137  
C        C      0.117300000000     0.999500000000     0.709200000000     0.0267137  
C        C      0.115300000000     0.000500000000     0.795500000000     0.0267137  
C        C      0.078700000000     0.055000000000     0.834500000000     0.0267137  
C        C      0.080500000000     0.056000000000     0.916100000000     0.0267137  
C        C      0.118600000000     0.002900000000     0.955800000000     0.0267137  
C        C      0.154300000000     0.949400000000     0.918300000000     0.0267137  
C        C      0.153500000000     0.947100000000     0.832200000000     0.0267137  
C        C      0.229100000000     0.826600000000     0.917900000000     0.0267137  
C        C      0.117300000000     0.209200000000     0.499500000000     0.0267137  
C        C      0.115300000000     0.295500000000     0.500500000000     0.0267137  
C        C      0.078700000000     0.334500000000     0.555000000000     0.0267137  
C        C      0.080500000000     0.416100000000     0.556000000000     0.0267137  
C        C      0.118600000000     0.455800000000     0.502900000000     0.0267137  
C        C      0.154300000000     0.418300000000     0.449400000000     0.0267137  
C        C      0.153500000000     0.332200000000     0.447100000000     0.0267137  
C        C      0.229100000000     0.417900000000     0.326600000000     0.0267137  
C        C      0.117300000000     0.790800000000     0.500500000000     0.0267137  
C        C      0.115300000000     0.704500000000     0.499500000000     0.0267137  
C        C      0.078700000000     0.665500000000     0.445000000000     0.0267137  
C        C      0.080500000000     0.583900000000     0.444000000000     0.0267137  
C        C      0.118600000000     0.544200000000     0.497100000000     0.0267137  
C        C      0.154300000000     0.581700000000     0.550600000000     0.0267137  
C        C      0.153500000000     0.667800000000     0.552900000000     0.0267137  
C        C      0.785900000000     0.049800000000     0.549800000000     0.0267137  
C        C      0.704000000000     0.049000000000     0.549000000000     0.0267137  
C        C      0.785900000000     0.950200000000     0.450200000000     0.0267137  
C        C      0.704000000000     0.951000000000     0.451000000000     0.0267137  
C        C      0.532400000000     0.950940000000     0.549060000000     0.0267137  
C        C      0.450800000000     0.949800000000     0.550200000000     0.0267137  
C        C      0.518900000000     0.857500000000     0.642500000000     0.0267137  
C        C      0.532400000000     0.049060000000     0.450940000000     0.0267137  
C        C      0.450800000000     0.050200000000     0.449800000000     0.0267137  
C        C      0.908600000000     0.000000000000     0.500000000000     0.0267137  
C        C      0.828200000000     0.000000000000     0.500000000000     0.0267137  
C        C      0.659800000000     0.000000000000     0.500000000000     0.0267137  
C        C      0.578500000000     0.000000000000     0.500000000000     0.0267137  
C        C      0.415300000000     0.000000000000     0.500000000000     0.0267137  
C        C      0.323700000000     0.000000000000     0.500000000000     0.0267137  
C        C      0.882700000000     0.290800000000     0.999500000000     0.0267137  
C        C      0.884700000000     0.204500000000     0.000500000000     0.0267137  
C        C      0.921300000000     0.165500000000     0.055000000000     0.0267137  
C        C      0.919500000000     0.083900000000     0.056000000000     0.0267137  
C        C      0.881400000000     0.044200000000     0.002900000000     0.0267137  
C        C      0.845700000000     0.081700000000     0.949400000000     0.0267137  
C        C      0.846500000000     0.167800000000     0.947100000000     0.0267137  
C        C      0.770900000000     0.082100000000     0.826600000000     0.0267137  
C        C      0.882700000000     0.709200000000     0.000500000000     0.0267137  
C        C      0.884700000000     0.795500000000     0.999500000000     0.0267137  
C        C      0.921300000000     0.834500000000     0.945000000000     0.0267137  
C        C      0.919500000000     0.916100000000     0.944000000000     0.0267137  
C        C      0.881400000000     0.955800000000     0.997100000000     0.0267137  
C        C      0.845700000000     0.918300000000     0.050600000000     0.0267137  
C        C      0.846500000000     0.832200000000     0.052900000000     0.0267137  
C        C      0.770900000000     0.917900000000     0.173400000000     0.0267137  
C        C      0.882700000000     0.499500000000     0.790800000000     0.0267137  
C        C      0.884700000000     0.500500000000     0.704500000000     0.0267137  
C        C      0.921300000000     0.555000000000     0.665500000000     0.0267137  
C        C      0.919500000000     0.556000000000     0.583900000000     0.0267137  
C        C      0.881400000000     0.502900000000     0.544200000000     0.0267137  
C        C      0.845700000000     0.449400000000     0.581700000000     0.0267137  
C        C      0.846500000000     0.447100000000     0.667800000000     0.0267137  
C        C      0.882700000000     0.500500000000     0.209200000000     0.0267137  
C        C      0.884700000000     0.499500000000     0.295500000000     0.0267137  
C        C      0.921300000000     0.445000000000     0.334500000000     0.0267137  
C        C      0.919500000000     0.444000000000     0.416100000000     0.0267137  
C        C      0.881400000000     0.497100000000     0.455800000000     0.0267137  
C        C      0.845700000000     0.550600000000     0.418300000000     0.0267137  
C        C      0.846500000000     0.552900000000     0.332200000000     0.0267137  
C        C      0.770900000000     0.673400000000     0.417900000000     0.0267137  
C        C      0.214100000000     0.549800000000     0.950200000000     0.0267137  
C        C      0.296000000000     0.549000000000     0.951000000000     0.0267137  
C        C      0.214100000000     0.450200000000     0.049800000000     0.0267137  
C        C      0.296000000000     0.451000000000     0.049000000000     0.0267137  
C        C      0.467600000000     0.549060000000     0.049060000000     0.0267137  
C        C      0.549200000000     0.550200000000     0.050200000000     0.0267137  
C        C      0.481100000000     0.642500000000     0.142500000000     0.0267137  
C        C      0.467600000000     0.450940000000     0.950940000000     0.0267137  
C        C      0.549200000000     0.449800000000     0.949800000000     0.0267137  
C        C      0.091400000000     0.500000000000     0.000000000000     0.0267137  
C        C      0.171800000000     0.500000000000     0.000000000000     0.0267137  
C        C      0.340200000000     0.500000000000     0.000000000000     0.0267137  
C        C      0.421500000000     0.500000000000     0.000000000000     0.0267137  
C        C      0.584700000000     0.500000000000     0.000000000000     0.0267137  
C        C      0.676300000000     0.500000000000     0.000000000000     0.0267137  
O        O      0.072000000000     0.950400000000     0.325230000000    -0.27113    
O        O      0.157700000000     0.048300000000     0.325400000000    -0.27113    
O        O      0.193100000000     0.114100000000     0.037300000000    -0.27113    
O        O      0.072000000000     0.049600000000     0.674770000000    -0.27113    
O        O      0.157700000000     0.951700000000     0.674600000000    -0.27113    
O        O      0.193100000000     0.885900000000     0.962700000000    -0.27113    
O        O      0.072000000000     0.174770000000     0.549600000000    -0.27113    
O        O      0.157700000000     0.174600000000     0.451700000000    -0.27113    
O        O      0.193100000000     0.462700000000     0.385900000000    -0.27113    
O        O      0.072000000000     0.825230000000     0.450400000000    -0.27113    
O        O      0.157700000000     0.825400000000     0.548300000000    -0.27113    
O        O      0.944200000000     0.947500000000     0.447500000000    -0.27113    
O        O      0.944200000000     0.052500000000     0.552500000000    -0.27113    
O        O      0.291000000000     0.946000000000     0.554000000000    -0.27113    
O        O      0.570700000000     0.901000000000     0.599000000000    -0.27113    
O        O      0.291000000000     0.054000000000     0.446000000000    -0.27113    
O        O      0.119000000000     0.000000000000     0.500000000000    -0.27113    
O        O      0.928000000000     0.325230000000     0.049600000000    -0.27113    
O        O      0.842300000000     0.325400000000     0.951700000000    -0.27113    
O        O      0.806900000000     0.037300000000     0.885900000000    -0.27113    
O        O      0.928000000000     0.674770000000     0.950400000000    -0.27113    
O        O      0.842300000000     0.674600000000     0.048300000000    -0.27113    
O        O      0.806900000000     0.962700000000     0.114100000000    -0.27113    
O        O      0.928000000000     0.549600000000     0.825230000000    -0.27113    
O        O      0.842300000000     0.451700000000     0.825400000000    -0.27113    
O        O      0.928000000000     0.450400000000     0.174770000000    -0.27113    
O        O      0.842300000000     0.548300000000     0.174600000000    -0.27113    
O        O      0.806900000000     0.614100000000     0.462700000000    -0.27113    
O        O      0.055800000000     0.447500000000     0.052500000000    -0.27113    
O        O      0.055800000000     0.552500000000     0.947500000000    -0.27113    
O        O      0.709000000000     0.554000000000     0.054000000000    -0.27113    
O        O      0.429300000000     0.599000000000     0.099000000000    -0.27113    
O        O      0.709000000000     0.446000000000     0.946000000000    -0.27113    
O        O      0.881000000000     0.500000000000     0.000000000000    -0.27113    


