data_XEDLUN_original

_audit_creation_method RASPA-1.0
_audit_creation_date 2022-1-30
_audit_author_name 'Felipe Lopes de Oliveira <felipe.lopes.oliveira@ibm.com>'

_cell_length_a    10.137
_cell_length_b    15.745
_cell_length_c    15.988
_cell_angle_alpha 90
_cell_angle_beta  90
_cell_angle_gamma 107.76
_cell_volume      2430.19

_symmetry_cell_setting          triclinic
_symmetry_space_group_name_Hall 'P 1'
_symmetry_space_group_name_H-M  'P 1'
_symmetry_Int_Tables_number     1

_symmetry_equiv_pos_as_xyz 'x,y,z'

loop_
_atom_site_label
_atom_site_type_symbol
_atom_site_fract_x
_atom_site_fract_y
_atom_site_fract_z
_atom_site_charge
Ti       Ti     0.867300000000     0.342000000000     0.675090000000     1.30966    
Ti       Ti     0.631600000000     0.157300000000     0.598920000000     1.30966    
Ti       Ti     0.132700000000     0.658000000000     0.175090000000     1.30966    
Ti       Ti     0.368400000000     0.842700000000     0.098920000000     1.30966    
H        H      0.954100000000     0.108700000000     0.623200000000     0.0565429  
H        H      0.047700000000     0.017600000000     0.703100000000     0.0565429  
H        H      0.053300000000     0.902200000000     0.775800000000     0.0565429  
H        H      0.170100000000     0.822000000000     0.859500000000     0.0565429  
H        H      0.212500000000     0.992400000000     0.046400000000     0.0565429  
H        H      0.101100000000     0.075900000000     0.967200000000     0.0565429  
H        H      0.912100000000     0.100100000000     0.911900000000     0.0565429  
H        H      0.798500000000     0.180700000000     0.837000000000     0.0565429  
H        H      0.071800000000     0.534400000000     0.757800000000     0.0565429  
H        H      0.226200000000     0.674300000000     0.754500000000     0.0565429  
H        H      0.394000000000     0.785500000000     0.745000000000     0.0565429  
H        H      0.553200000000     0.913200000000     0.740400000000     0.0565429  
H        H      0.437700000000     0.968600000000     0.516300000000     0.0565429  
H        H      0.266600000000     0.832100000000     0.514000000000     0.0565429  
H        H      0.096900000000     0.719000000000     0.532300000000     0.0565429  
H        H      0.951600000000     0.571400000000     0.518400000000     0.0565429  
H        H      0.277200000000     0.501600000000     0.228000000000     0.0565429  
H        H      0.379500000000     0.417300000000     0.306100000000     0.0565429  
H        H      0.427300000000     0.468700000000     0.572100000000     0.0565429  
H        H      0.548000000000     0.391000000000     0.650200000000     0.0565429  
H        H      0.699600000000     0.317200000000     0.440300000000     0.0565429  
H        H      0.586400000000     0.400500000000     0.355500000000     0.0565429  
H        H      0.438600000000     0.595100000000     0.492600000000     0.0565429  
H        H      0.341500000000     0.683300000000     0.417700000000     0.0565429  
H        H      0.045900000000     0.891300000000     0.123200000000     0.0565429  
H        H      0.952300000000     0.982400000000     0.203100000000     0.0565429  
H        H      0.946700000000     0.097800000000     0.275800000000     0.0565429  
H        H      0.829900000000     0.178000000000     0.359500000000     0.0565429  
H        H      0.787500000000     0.007600000000     0.546400000000     0.0565429  
H        H      0.898900000000     0.924100000000     0.467200000000     0.0565429  
H        H      0.087900000000     0.899900000000     0.411900000000     0.0565429  
H        H      0.201500000000     0.819300000000     0.337000000000     0.0565429  
H        H      0.928200000000     0.465600000000     0.257800000000     0.0565429  
H        H      0.773800000000     0.325700000000     0.254500000000     0.0565429  
H        H      0.606000000000     0.214500000000     0.245000000000     0.0565429  
H        H      0.446800000000     0.086800000000     0.240400000000     0.0565429  
H        H      0.562300000000     0.031400000000     0.016300000000     0.0565429  
H        H      0.733400000000     0.167900000000     0.014000000000     0.0565429  
H        H      0.903100000000     0.281000000000     0.032300000000     0.0565429  
H        H      0.048400000000     0.428600000000     0.018400000000     0.0565429  
H        H      0.722800000000     0.498400000000     0.728000000000     0.0565429  
H        H      0.620500000000     0.582700000000     0.806100000000     0.0565429  
H        H      0.572700000000     0.531300000000     0.072100000000     0.0565429  
H        H      0.452000000000     0.609000000000     0.150200000000     0.0565429  
H        H      0.300400000000     0.682800000000     0.940300000000     0.0565429  
H        H      0.413600000000     0.599500000000     0.855500000000     0.0565429  
H        H      0.561400000000     0.404900000000     0.992600000000     0.0565429  
H        H      0.658500000000     0.316700000000     0.917700000000     0.0565429  
C        C      0.869400000000     0.154800000000     0.724700000000    -0.0216902  
C        C      0.944100000000     0.106100000000     0.682300000000    -0.0216902  
C        C      0.002400000000     0.054200000000     0.730800000000    -0.0216902  
C        C      0.998700000000     0.052500000000     0.816800000000    -0.0216902  
C        C      0.070700000000     0.998800000000     0.864700000000    -0.0216902  
C        C      0.086400000000     0.922200000000     0.830100000000    -0.0216902  
C        C      0.156200000000     0.874500000000     0.881800000000    -0.0216902  
C        C      0.201400000000     0.898300000000     0.956700000000    -0.0216902  
C        C      0.181500000000     0.974300000000     0.991200000000    -0.0216902  
C        C      0.115300000000     0.023900000000     0.943800000000    -0.0216902  
C        C      0.920200000000     0.101200000000     0.852600000000    -0.0216902  
C        C      0.853800000000     0.150400000000     0.809200000000    -0.0216902  
C        C      0.987700000000     0.536800000000     0.638000000000    -0.0216902  
C        C      0.078500000000     0.570200000000     0.709300000000    -0.0216902  
C        C      0.172800000000     0.653000000000     0.705800000000    -0.0216902  
C        C      0.195800000000     0.706300000000     0.638700000000    -0.0216902  
C        C      0.301500000000     0.792300000000     0.636400000000    -0.0216902  
C        C      0.396600000000     0.822400000000     0.697600000000    -0.0216902  
C        C      0.491300000000     0.899200000000     0.694300000000    -0.0216902  
C        C      0.515100000000     0.966200000000     0.629900000000    -0.0216902  
C        C      0.427000000000     0.932500000000     0.564900000000    -0.0216902  
C        C      0.322500000000     0.850000000000     0.562400000000    -0.0216902  
C        C      0.098700000000     0.677300000000     0.574900000000    -0.0216902  
C        C      0.003000000000     0.591100000000     0.568200000000    -0.0216902  
C        C      0.298700000000     0.603000000000     0.311400000000    -0.0216902  
C        C      0.312900000000     0.522400000000     0.281700000000    -0.0216902  
C        C      0.376300000000     0.472900000000     0.327500000000    -0.0216902  
C        C      0.438500000000     0.502900000000     0.407400000000    -0.0216902  
C        C      0.506000000000     0.449000000000     0.456300000000    -0.0216902  
C        C      0.486500000000     0.440900000000     0.544800000000    -0.0216902  
C        C      0.555100000000     0.391800000000     0.591000000000    -0.0216902  
C        C      0.633900000000     0.343900000000     0.552200000000    -0.0216902  
C        C      0.645400000000     0.349000000000     0.467100000000    -0.0216902  
C        C      0.579500000000     0.400300000000     0.414800000000    -0.0216902  
C        C      0.411500000000     0.577900000000     0.436600000000    -0.0216902  
C        C      0.350100000000     0.630100000000     0.393700000000    -0.0216902  
C        C      0.130600000000     0.845200000000     0.224700000000    -0.0216902  
C        C      0.055900000000     0.893900000000     0.182300000000    -0.0216902  
C        C      0.997600000000     0.945800000000     0.230800000000    -0.0216902  
C        C      0.001300000000     0.947500000000     0.316800000000    -0.0216902  
C        C      0.929300000000     0.001200000000     0.364700000000    -0.0216902  
C        C      0.913600000000     0.077800000000     0.330100000000    -0.0216902  
C        C      0.843800000000     0.125500000000     0.381800000000    -0.0216902  
C        C      0.798600000000     0.101700000000     0.456700000000    -0.0216902  
C        C      0.818500000000     0.025700000000     0.491200000000    -0.0216902  
C        C      0.884700000000     0.976100000000     0.443800000000    -0.0216902  
C        C      0.079800000000     0.898800000000     0.352600000000    -0.0216902  
C        C      0.146200000000     0.849600000000     0.309200000000    -0.0216902  
C        C      0.012300000000     0.463200000000     0.138000000000    -0.0216902  
C        C      0.921500000000     0.429800000000     0.209300000000    -0.0216902  
C        C      0.827200000000     0.347000000000     0.205800000000    -0.0216902  
C        C      0.804200000000     0.293700000000     0.138700000000    -0.0216902  
C        C      0.698500000000     0.207700000000     0.136400000000    -0.0216902  
C        C      0.603400000000     0.177600000000     0.197600000000    -0.0216902  
C        C      0.508700000000     0.100800000000     0.194300000000    -0.0216902  
C        C      0.484900000000     0.033800000000     0.129900000000    -0.0216902  
C        C      0.573000000000     0.067500000000     0.064900000000    -0.0216902  
C        C      0.677500000000     0.150000000000     0.062400000000    -0.0216902  
C        C      0.901300000000     0.322700000000     0.074900000000    -0.0216902  
C        C      0.997000000000     0.408900000000     0.068200000000    -0.0216902  
C        C      0.701300000000     0.397000000000     0.811400000000    -0.0216902  
C        C      0.687100000000     0.477600000000     0.781700000000    -0.0216902  
C        C      0.623700000000     0.527100000000     0.827500000000    -0.0216902  
C        C      0.561500000000     0.497100000000     0.907400000000    -0.0216902  
C        C      0.494000000000     0.551000000000     0.956300000000    -0.0216902  
C        C      0.513500000000     0.559100000000     0.044800000000    -0.0216902  
C        C      0.444900000000     0.608200000000     0.091000000000    -0.0216902  
C        C      0.366100000000     0.656100000000     0.052200000000    -0.0216902  
C        C      0.354600000000     0.651000000000     0.967100000000    -0.0216902  
C        C      0.420500000000     0.599700000000     0.914800000000    -0.0216902  
C        C      0.588500000000     0.422100000000     0.936600000000    -0.0216902  
C        C      0.649900000000     0.369900000000     0.893700000000    -0.0216902  
O        O      0.804600000000     0.205000000000     0.674900000000    -0.532585   
O        O      0.253300000000     0.844200000000     0.006000000000    -0.532585   
O        O      0.896100000000     0.459200000000     0.638300000000    -0.532585   
O        O      0.610900000000     0.045000000000     0.632200000000    -0.532585   
O        O      0.242900000000     0.656400000000     0.267800000000    -0.532585   
O        O      0.693900000000     0.294300000000     0.596200000000    -0.532585   
O        O      0.195400000000     0.795000000000     0.174900000000    -0.532585   
O        O      0.746700000000     0.155800000000     0.506000000000    -0.532585   
O        O      0.103900000000     0.540800000000     0.138300000000    -0.532585   
O        O      0.389100000000     0.955000000000     0.132200000000    -0.532585   
O        O      0.757100000000     0.343600000000     0.767800000000    -0.532585   
O        O      0.306100000000     0.705700000000     0.096200000000    -0.532585   


