data_XEDPON_original

_audit_creation_method RASPA-1.0
_audit_creation_date 2022-1-31
_audit_author_name 'Felipe Lopes de Oliveira <felipe.lopes.oliveira@ibm.com>'

_cell_length_a    9.57
_cell_length_b    11.6489
_cell_length_c    11.6489
_cell_angle_alpha 80.286
_cell_angle_beta  65.7468
_cell_angle_gamma 65.7469
_cell_volume      1079.5

_symmetry_cell_setting          triclinic
_symmetry_space_group_name_Hall 'P 1'
_symmetry_space_group_name_H-M  'P 1'
_symmetry_Int_Tables_number     1

_symmetry_equiv_pos_as_xyz 'x,y,z'

loop_
_atom_site_label
_atom_site_type_symbol
_atom_site_fract_x
_atom_site_fract_y
_atom_site_fract_z
_atom_site_charge
Zn       Zn     0.302920000000     0.475290000000     0.832550000000     0.297267   
Zn       Zn     0.610760000000     0.524710000000     0.167450000000     0.297267   
Zn       Zn     0.864530000000     0.832550000000     0.524710000000     0.297267   
Zn       Zn     0.221790000000     0.167450000000     0.475290000000     0.297267   
H        H      0.997600000000     0.433900000000     0.050500000000     0.0087614  
H        H      0.591900000000     0.820200000000     0.769200000000     0.0087614  
H        H      0.078100000000     0.663700000000     0.659300000000     0.0087614  
H        H      0.482000000000     0.566100000000     0.949500000000     0.0087614  
H        H      0.181300000000     0.179800000000     0.230800000000     0.0087614  
H        H      0.401100000000     0.336300000000     0.340700000000     0.0087614  
H        H      0.951900000000     0.050500000000     0.566100000000     0.0087614  
H        H      0.638900000000     0.769200000000     0.179800000000     0.0087614  
H        H      0.262600000000     0.659300000000     0.336300000000     0.0087614  
H        H      0.568500000000     0.949500000000     0.433900000000     0.0087614  
H        H      0.587900000000     0.230800000000     0.820200000000     0.0087614  
H        H      0.258200000000     0.340700000000     0.663700000000     0.0087614  
C        C      0.958100000000     0.491400000000     0.994400000000     0.0657112  
C        C      0.790100000000     0.626700000000     0.915500000000     0.0657112  
C        C      0.683000000000     0.763400000000     0.786600000000     0.0657112  
C        C      0.973200000000     0.672700000000     0.718700000000     0.0657112  
C        C      0.951800000000     0.607300000000     0.833500000000     0.0657112  
C        C      0.443900000000     0.508600000000     0.005600000000     0.0657112  
C        C      0.332300000000     0.373300000000     0.084500000000     0.0657112  
C        C      0.233000000000     0.236600000000     0.213400000000     0.0657112  
C        C      0.364600000000     0.327300000000     0.281300000000     0.0657112  
C        C      0.392600000000     0.392700000000     0.166500000000     0.0657112  
C        C      0.047500000000     0.994400000000     0.508600000000     0.0657112  
C        C      0.294400000000     0.915500000000     0.373300000000     0.0657112  
C        C      0.530400000000     0.786600000000     0.236600000000     0.0657112  
C        C      0.308100000000     0.718700000000     0.327300000000     0.0657112  
C        C      0.214700000000     0.833500000000     0.392700000000     0.0657112  
C        C      0.550500000000     0.005600000000     0.491400000000     0.0657112  
C        C      0.583200000000     0.084500000000     0.626700000000     0.0657112  
C        C      0.553600000000     0.213400000000     0.763400000000     0.0657112  
C        C      0.354100000000     0.281300000000     0.672700000000     0.0657112  
C        C      0.440900000000     0.166500000000     0.607300000000     0.0657112  
N        N      0.058800000000     0.522300000000     0.884300000000    -0.163027   
N        N      0.797600000000     0.549900000000     0.016100000000    -0.163027   
N        N      0.654100000000     0.703000000000     0.895400000000    -0.163027   
N        N      0.835800000000     0.748800000000     0.698400000000    -0.163027   
N        N      0.465400000000     0.477700000000     0.115700000000    -0.163027   
N        N      0.363600000000     0.450100000000     0.983900000000    -0.163027   
N        N      0.252500000000     0.297000000000     0.104600000000    -0.163027   
N        N      0.283000000000     0.251200000000     0.301600000000    -0.163027   
N        N      0.056900000000     0.884300000000     0.477700000000    -0.163027   
N        N      0.186300000000     0.016100000000     0.450100000000    -0.163027   
N        N      0.450500000000     0.895400000000     0.297000000000    -0.163027   
N        N      0.465800000000     0.698400000000     0.251200000000    -0.163027   
N        N      0.418900000000     0.115700000000     0.522300000000    -0.163027   
N        N      0.652500000000     0.983900000000     0.549900000000    -0.163027   
N        N      0.642900000000     0.104600000000     0.703000000000    -0.163027   
N        N      0.415400000000     0.301600000000     0.748800000000    -0.163027   


