data_XENMIO_original

_audit_creation_method RASPA-1.0
_audit_creation_date 2022-1-30
_audit_author_name 'Felipe Lopes de Oliveira <felipe.lopes.oliveira@ibm.com>'

_cell_length_a    6.3108
_cell_length_b    12.639
_cell_length_c    15.631
_cell_angle_alpha 95.723
_cell_angle_beta  99.878
_cell_angle_gamma 97.86
_cell_volume      1207.01

_symmetry_cell_setting          triclinic
_symmetry_space_group_name_Hall 'P 1'
_symmetry_space_group_name_H-M  'P 1'
_symmetry_Int_Tables_number     1

_symmetry_equiv_pos_as_xyz 'x,y,z'

loop_
_atom_site_label
_atom_site_type_symbol
_atom_site_fract_x
_atom_site_fract_y
_atom_site_fract_z
_atom_site_charge
Zn       Zn     0.479960000000     0.045820000000     0.899450000000     0.481634   
Zn       Zn     0.941430000000     0.038060000000     0.813730000000     0.481634   
Zn       Zn     0.520040000000     0.954180000000     0.100550000000     0.481634   
Zn       Zn     0.058570000000     0.961940000000     0.186270000000     0.481634   
Zn       Zn     0.000000000000     0.000000000000     0.000000000000     0.481634   
H        H      0.816300000000     0.269900000000     0.644200000000     0.103551   
H        H      0.422900000000     0.486800000000     0.588800000000     0.103551   
H        H      0.356100000000     0.317100000000     0.788200000000     0.103551   
H        H      0.532300000000     0.576600000000     0.795800000000     0.103551   
H        H      0.544300000000     0.729000000000     0.891900000000     0.103551   
H        H      0.894600000000     0.693900000000     0.841900000000     0.103551   
H        H      0.881200000000     0.542000000000     0.745100000000     0.103551   
H        H      0.450700000000     0.252800000000     0.457700000000     0.103551   
H        H      0.477800000000     0.128500000000     0.343900000000     0.103551   
H        H      0.103900000000     0.254500000000     0.364500000000     0.103551   
H        H      0.067500000000     0.383900000000     0.473300000000     0.103551   
H        H      0.183700000000     0.730100000000     0.355800000000     0.103551   
H        H      0.577100000000     0.513200000000     0.411200000000     0.103551   
H        H      0.643900000000     0.682900000000     0.211800000000     0.103551   
H        H      0.467700000000     0.423400000000     0.204200000000     0.103551   
H        H      0.455700000000     0.271000000000     0.108100000000     0.103551   
H        H      0.105400000000     0.306100000000     0.158100000000     0.103551   
H        H      0.118800000000     0.458000000000     0.254900000000     0.103551   
H        H      0.549300000000     0.747200000000     0.542300000000     0.103551   
H        H      0.522200000000     0.871500000000     0.656100000000     0.103551   
H        H      0.896100000000     0.745500000000     0.635500000000     0.103551   
H        H      0.932500000000     0.616100000000     0.526700000000     0.103551   
C        C      0.669400000000     0.195680000000     0.779990000000     0.0294494  
C        C      0.597800000000     0.279780000000     0.724330000000     0.0294494  
C        C      0.701600000000     0.304470000000     0.655880000000     0.0294494  
C        C      0.632800000000     0.380640000000     0.605600000000     0.0294494  
C        C      0.466100000000     0.434280000000     0.622600000000     0.0294494  
C        C      0.364900000000     0.408700000000     0.690370000000     0.0294494  
C        C      0.426300000000     0.332920000000     0.742250000000     0.0294494  
C        C      0.206300000000     0.544580000000     0.761050000000     0.0294494  
C        C      0.403800000000     0.600270000000     0.804830000000     0.0294494  
C        C      0.410400000000     0.691540000000     0.862340000000     0.0294494  
C        C      0.220500000000     0.728150000000     0.876720000000     0.0294494  
C        C      0.023400000000     0.670750000000     0.832530000000     0.0294494  
C        C      0.014900000000     0.579700000000     0.774760000000     0.0294494  
C        C      0.225100000000     0.827230000000     0.936640000000     0.0294494  
C        C      0.755900000000     0.329480000000     0.475620000000     0.0294494  
C        C      0.581700000000     0.253700000000     0.437950000000     0.0294494  
C        C      0.598800000000     0.178500000000     0.370870000000     0.0294494  
C        C      0.795600000000     0.176650000000     0.342990000000     0.0294494  
C        C      0.970800000000     0.254300000000     0.382410000000     0.0294494  
C        C      0.949900000000     0.331100000000     0.447940000000     0.0294494  
C        C      0.817500000000     0.093680000000     0.271580000000     0.0294494  
C        C      0.330600000000     0.804320000000     0.220010000000     0.0294494  
C        C      0.402200000000     0.720220000000     0.275670000000     0.0294494  
C        C      0.298400000000     0.695530000000     0.344120000000     0.0294494  
C        C      0.367200000000     0.619360000000     0.394400000000     0.0294494  
C        C      0.533900000000     0.565720000000     0.377400000000     0.0294494  
C        C      0.635100000000     0.591300000000     0.309630000000     0.0294494  
C        C      0.573700000000     0.667080000000     0.257750000000     0.0294494  
C        C      0.793700000000     0.455420000000     0.238950000000     0.0294494  
C        C      0.596200000000     0.399730000000     0.195170000000     0.0294494  
C        C      0.589600000000     0.308460000000     0.137660000000     0.0294494  
C        C      0.779500000000     0.271850000000     0.123280000000     0.0294494  
C        C      0.976600000000     0.329250000000     0.167470000000     0.0294494  
C        C      0.985100000000     0.420300000000     0.225240000000     0.0294494  
C        C      0.774900000000     0.172770000000     0.063360000000     0.0294494  
C        C      0.244100000000     0.670520000000     0.524380000000     0.0294494  
C        C      0.418300000000     0.746300000000     0.562050000000     0.0294494  
C        C      0.401200000000     0.821500000000     0.629130000000     0.0294494  
C        C      0.204400000000     0.823350000000     0.657010000000     0.0294494  
C        C      0.029200000000     0.745700000000     0.617590000000     0.0294494  
C        C      0.050100000000     0.668900000000     0.552060000000     0.0294494  
C        C      0.182500000000     0.906320000000     0.728420000000     0.0294494  
O        O      0.749900000000     0.981240000000     0.892170000000    -0.296158   
O        O      0.186100000000     0.082090000000     0.913910000000    -0.296158   
O        O      0.579700000000     0.180610000000     0.843670000000    -0.296158   
O        O      0.817400000000     0.148190000000     0.757340000000    -0.296158   
O        O      0.181900000000     0.454290000000     0.702660000000    -0.296158   
O        O      0.048200000000     0.849410000000     0.952370000000    -0.296158   
O        O      0.409000000000     0.885020000000     0.967880000000    -0.296158   
O        O      0.739700000000     0.410920000000     0.539030000000    -0.296158   
O        O      0.647200000000     0.045940000000     0.222780000000    -0.296158   
O        O      0.007200000000     0.077900000000     0.265380000000    -0.296158   
O        O      0.250100000000     0.018760000000     0.107830000000    -0.296158   
O        O      0.813900000000     0.917910000000     0.086090000000    -0.296158   
O        O      0.420300000000     0.819390000000     0.156330000000    -0.296158   
O        O      0.182600000000     0.851810000000     0.242660000000    -0.296158   
O        O      0.818100000000     0.545710000000     0.297340000000    -0.296158   
O        O      0.951800000000     0.150590000000     0.047630000000    -0.296158   
O        O      0.591000000000     0.114980000000     0.032120000000    -0.296158   
O        O      0.260300000000     0.589080000000     0.460970000000    -0.296158   
O        O      0.352800000000     0.954060000000     0.777220000000    -0.296158   
O        O      0.992800000000     0.922100000000     0.734620000000    -0.296158   


