data_XENMOU_original

_audit_creation_method RASPA-1.0
_audit_creation_date 2022-1-31
_audit_author_name 'Felipe Lopes de Oliveira <felipe.lopes.oliveira@ibm.com>'

_cell_length_a    6.3303
_cell_length_b    12.6819
_cell_length_c    15.6877
_cell_angle_alpha 95.711
_cell_angle_beta  99.773
_cell_angle_gamma 97.973
_cell_volume      1219.33

_symmetry_cell_setting          triclinic
_symmetry_space_group_name_Hall 'P 1'
_symmetry_space_group_name_H-M  'P 1'
_symmetry_Int_Tables_number     1

_symmetry_equiv_pos_as_xyz 'x,y,z'

loop_
_atom_site_label
_atom_site_type_symbol
_atom_site_fract_x
_atom_site_fract_y
_atom_site_fract_z
_atom_site_charge
Zn       Zn     0.519970000000     0.953830000000     0.100460000000     0.484808   
Zn       Zn     0.058600000000     0.961810000000     0.186120000000     0.484808   
Zn       Zn     0.480030000000     0.046170000000     0.899540000000     0.484808   
Zn       Zn     0.941400000000     0.038190000000     0.813880000000     0.484808   
Zn       Zn     0.000000000000     0.000000000000     0.000000000000     0.484808   
H        H      0.188200000000     0.732100000000     0.356500000000     0.110691   
H        H      0.579100000000     0.514100000000     0.412000000000     0.110691   
H        H      0.640500000000     0.683500000000     0.211300000000     0.110691   
H        H      0.118000000000     0.459700000000     0.253100000000     0.110691   
H        H      0.104400000000     0.307200000000     0.158300000000     0.110691   
H        H      0.455900000000     0.270300000000     0.108300000000     0.110691   
H        H      0.469000000000     0.424000000000     0.203700000000     0.110691   
H        H      0.932500000000     0.615700000000     0.527800000000     0.110691   
H        H      0.897300000000     0.746000000000     0.636100000000     0.110691   
H        H      0.520200000000     0.874000000000     0.656100000000     0.110691   
H        H      0.551500000000     0.747300000000     0.543200000000     0.110691   
H        H      0.711000000000     0.913500000000     0.876000000000     0.110691   
H        H      0.811800000000     0.267900000000     0.643500000000     0.110691   
H        H      0.420900000000     0.485900000000     0.588000000000     0.110691   
H        H      0.359500000000     0.316500000000     0.788700000000     0.110691   
H        H      0.882000000000     0.540300000000     0.746900000000     0.110691   
H        H      0.895600000000     0.692800000000     0.841700000000     0.110691   
H        H      0.544100000000     0.729700000000     0.891700000000     0.110691   
H        H      0.531000000000     0.576000000000     0.796300000000     0.110691   
H        H      0.067500000000     0.384300000000     0.472200000000     0.110691   
H        H      0.102700000000     0.254000000000     0.363900000000     0.110691   
H        H      0.479800000000     0.126000000000     0.343900000000     0.110691   
H        H      0.448500000000     0.252700000000     0.456800000000     0.110691   
H        H      0.289000000000     0.086500000000     0.124000000000     0.110691   
C        C      0.329800000000     0.803200000000     0.220100000000     0.0279715  
C        C      0.401900000000     0.720100000000     0.275100000000     0.0279715  
C        C      0.300400000000     0.696500000000     0.344300000000     0.0279715  
C        C      0.367000000000     0.619800000000     0.394800000000     0.0279715  
C        C      0.535100000000     0.566000000000     0.378100000000     0.0279715  
C        C      0.635800000000     0.592100000000     0.309100000000     0.0279715  
C        C      0.571500000000     0.667700000000     0.257300000000     0.0279715  
C        C      0.793900000000     0.456000000000     0.238300000000     0.0279715  
C        C      0.984700000000     0.421500000000     0.224300000000     0.0279715  
C        C      0.976000000000     0.330400000000     0.167400000000     0.0279715  
C        C      0.778800000000     0.272700000000     0.123400000000     0.0279715  
C        C      0.589300000000     0.308200000000     0.137400000000     0.0279715  
C        C      0.597000000000     0.400200000000     0.194700000000     0.0279715  
C        C      0.774900000000     0.173000000000     0.063600000000     0.0279715  
C        C      0.244300000000     0.670800000000     0.524600000000     0.0279715  
C        C      0.049700000000     0.668700000000     0.552600000000     0.0279715  
C        C      0.029900000000     0.745900000000     0.618100000000     0.0279715  
C        C      0.205200000000     0.823000000000     0.657100000000     0.0279715  
C        C      0.401000000000     0.823000000000     0.629600000000     0.0279715  
C        C      0.420300000000     0.746800000000     0.562400000000     0.0279715  
C        C      0.185200000000     0.906600000000     0.728900000000     0.0279715  
C        C      0.670200000000     0.196800000000     0.779900000000     0.0279715  
C        C      0.598100000000     0.279900000000     0.724900000000     0.0279715  
C        C      0.699600000000     0.303500000000     0.655700000000     0.0279715  
C        C      0.633000000000     0.380200000000     0.605200000000     0.0279715  
C        C      0.464900000000     0.434000000000     0.621900000000     0.0279715  
C        C      0.364200000000     0.407900000000     0.690900000000     0.0279715  
C        C      0.428500000000     0.332300000000     0.742700000000     0.0279715  
C        C      0.206100000000     0.544000000000     0.761700000000     0.0279715  
C        C      0.015300000000     0.578500000000     0.775700000000     0.0279715  
C        C      0.024000000000     0.669600000000     0.832600000000     0.0279715  
C        C      0.221200000000     0.727300000000     0.876600000000     0.0279715  
C        C      0.410700000000     0.691800000000     0.862600000000     0.0279715  
C        C      0.403000000000     0.599800000000     0.805300000000     0.0279715  
C        C      0.225100000000     0.827000000000     0.936400000000     0.0279715  
C        C      0.755700000000     0.329200000000     0.475400000000     0.0279715  
C        C      0.950300000000     0.331300000000     0.447400000000     0.0279715  
C        C      0.970100000000     0.254100000000     0.381900000000     0.0279715  
C        C      0.794800000000     0.177000000000     0.342900000000     0.0279715  
C        C      0.599000000000     0.177000000000     0.370400000000     0.0279715  
C        C      0.579700000000     0.253200000000     0.437600000000     0.0279715  
C        C      0.814800000000     0.093400000000     0.271100000000     0.0279715  
O        O      0.749700000000     0.980400000000     0.892200000000    -0.312771   
O        O      0.187000000000     0.082100000000     0.913000000000    -0.312771   
O        O      0.420100000000     0.818400000000     0.155800000000    -0.312771   
O        O      0.181600000000     0.851500000000     0.243000000000    -0.312771   
O        O      0.819100000000     0.546200000000     0.297400000000    -0.312771   
O        O      0.952800000000     0.151200000000     0.047900000000    -0.312771   
O        O      0.591100000000     0.115200000000     0.032500000000    -0.312771   
O        O      0.261400000000     0.589000000000     0.461100000000    -0.312771   
O        O      0.354000000000     0.954800000000     0.776900000000    -0.312771   
O        O      0.992000000000     0.922300000000     0.734300000000    -0.312771   
O        O      0.250300000000     0.019600000000     0.107800000000    -0.312771   
O        O      0.813000000000     0.917900000000     0.087000000000    -0.312771   
O        O      0.579900000000     0.181600000000     0.844200000000    -0.312771   
O        O      0.818400000000     0.148500000000     0.757000000000    -0.312771   
O        O      0.180900000000     0.453800000000     0.702600000000    -0.312771   
O        O      0.047200000000     0.848800000000     0.952100000000    -0.312771   
O        O      0.408900000000     0.884800000000     0.967500000000    -0.312771   
O        O      0.738600000000     0.411000000000     0.538900000000    -0.312771   
O        O      0.646000000000     0.045200000000     0.223100000000    -0.312771   
O        O      0.008000000000     0.077700000000     0.265700000000    -0.312771   


