data_XEQGEH_original

_audit_creation_method RASPA-1.0
_audit_creation_date 2022-1-30
_audit_author_name 'Felipe Lopes de Oliveira <felipe.lopes.oliveira@ibm.com>'

_cell_length_a    11.972
_cell_length_b    12.043
_cell_length_c    27.792
_cell_angle_alpha 90
_cell_angle_beta  99.959
_cell_angle_gamma 90
_cell_volume      3946.64

_symmetry_cell_setting          triclinic
_symmetry_space_group_name_Hall 'P 1'
_symmetry_space_group_name_H-M  'P 1'
_symmetry_Int_Tables_number     1

_symmetry_equiv_pos_as_xyz 'x,y,z'

loop_
_atom_site_label
_atom_site_type_symbol
_atom_site_fract_x
_atom_site_fract_y
_atom_site_fract_z
_atom_site_charge
Zn       Zn     0.765980000000     0.457870000000     0.451220000000     0.429711   
Zn       Zn     0.265980000000     0.042130000000     0.951220000000     0.429711   
Zn       Zn     0.734020000000     0.957870000000     0.048780000000     0.429711   
Zn       Zn     0.234020000000     0.542130000000     0.548780000000     0.429711   
H        H      0.945200000000     0.584800000000     0.393400000000     0.0544756  
H        H      0.348700000000     0.092100000000     0.759000000000     0.0544756  
H        H      0.412700000000     0.023400000000     0.692000000000     0.0544756  
H        H      0.589600000000     0.073600000000     0.675600000000     0.0544756  
H        H      0.638300000000     0.263700000000     0.795400000000     0.0544756  
H        H      0.462500000000     0.211600000000     0.812300000000     0.0544756  
H        H      0.926600000000     0.318000000000     0.750800000000     0.0544756  
H        H      0.075200000000     0.296800000000     0.815700000000     0.0544756  
H        H      0.933500000000     0.025800000000     0.856400000000     0.0544756  
H        H      0.772900000000     0.050900000000     0.796000000000     0.0544756  
H        H      0.905800000000     0.151900000000     0.680500000000     0.0544756  
H        H      0.928500000000     0.198900000000     0.602700000000     0.0544756  
H        H      0.646300000000     0.382800000000     0.587300000000     0.0544756  
H        H      0.620100000000     0.331500000000     0.664700000000     0.0544756  
H        H      0.587900000000     0.645300000000     0.440900000000     0.0544756  
H        H      0.825000000000     0.876900000000     0.467300000000     0.0544756  
H        H      0.916100000000     0.695600000000     0.471400000000     0.0544756  
H        H      0.467000000000     0.785000000000     0.471600000000     0.0544756  
H        H      0.328100000000     0.918100000000     0.458700000000     0.0544756  
H        H      0.534700000000     0.122400000000     0.402100000000     0.0544756  
H        H      0.677400000000     0.989600000000     0.414700000000     0.0544756  
H        H      0.192500000000     0.014000000000     0.403000000000     0.0544756  
H        H      0.050600000000     0.147000000000     0.393800000000     0.0544756  
H        H      0.282500000000     0.387700000000     0.426500000000     0.0544756  
H        H      0.426300000000     0.255100000000     0.433800000000     0.0544756  
H        H      0.950300000000     0.280400000000     0.441700000000     0.0544756  
H        H      0.118000000000     0.498400000000     0.374900000000     0.0544756  
H        H      0.445200000000     0.915200000000     0.893400000000     0.0544756  
H        H      0.848700000000     0.407900000000     0.259000000000     0.0544756  
H        H      0.912700000000     0.476600000000     0.192000000000     0.0544756  
H        H      0.089600000000     0.426400000000     0.175600000000     0.0544756  
H        H      0.138300000000     0.236300000000     0.295400000000     0.0544756  
H        H      0.962500000000     0.288400000000     0.312300000000     0.0544756  
H        H      0.426600000000     0.182000000000     0.250800000000     0.0544756  
H        H      0.575200000000     0.203200000000     0.315700000000     0.0544756  
H        H      0.433500000000     0.474200000000     0.356400000000     0.0544756  
H        H      0.272900000000     0.449100000000     0.296000000000     0.0544756  
H        H      0.405800000000     0.348100000000     0.180500000000     0.0544756  
H        H      0.428500000000     0.301100000000     0.102700000000     0.0544756  
H        H      0.146300000000     0.117200000000     0.087300000000     0.0544756  
H        H      0.120100000000     0.168500000000     0.164700000000     0.0544756  
H        H      0.087900000000     0.854700000000     0.940900000000     0.0544756  
H        H      0.325000000000     0.623100000000     0.967300000000     0.0544756  
H        H      0.416100000000     0.804400000000     0.971400000000     0.0544756  
H        H      0.967000000000     0.715000000000     0.971600000000     0.0544756  
H        H      0.828100000000     0.581900000000     0.958700000000     0.0544756  
H        H      0.034700000000     0.377600000000     0.902100000000     0.0544756  
H        H      0.177400000000     0.510400000000     0.914700000000     0.0544756  
H        H      0.692500000000     0.486000000000     0.903000000000     0.0544756  
H        H      0.550600000000     0.353000000000     0.893800000000     0.0544756  
H        H      0.782500000000     0.112300000000     0.926500000000     0.0544756  
H        H      0.926300000000     0.244900000000     0.933800000000     0.0544756  
H        H      0.450300000000     0.219600000000     0.941700000000     0.0544756  
H        H      0.618000000000     0.001600000000     0.874900000000     0.0544756  
H        H      0.554800000000     0.084800000000     0.106600000000     0.0544756  
H        H      0.151300000000     0.592100000000     0.741000000000     0.0544756  
H        H      0.087300000000     0.523400000000     0.808000000000     0.0544756  
H        H      0.910400000000     0.573600000000     0.824400000000     0.0544756  
H        H      0.861700000000     0.763700000000     0.704600000000     0.0544756  
H        H      0.037500000000     0.711600000000     0.687700000000     0.0544756  
H        H      0.573400000000     0.818000000000     0.749200000000     0.0544756  
H        H      0.424800000000     0.796800000000     0.684300000000     0.0544756  
H        H      0.566500000000     0.525800000000     0.643600000000     0.0544756  
H        H      0.727100000000     0.550900000000     0.704000000000     0.0544756  
H        H      0.594200000000     0.651900000000     0.819500000000     0.0544756  
H        H      0.571500000000     0.698900000000     0.897300000000     0.0544756  
H        H      0.853700000000     0.882800000000     0.912700000000     0.0544756  
H        H      0.879900000000     0.831500000000     0.835300000000     0.0544756  
H        H      0.912100000000     0.145300000000     0.059100000000     0.0544756  
H        H      0.675000000000     0.376900000000     0.032700000000     0.0544756  
H        H      0.583900000000     0.195600000000     0.028600000000     0.0544756  
H        H      0.033000000000     0.285000000000     0.028400000000     0.0544756  
H        H      0.171900000000     0.418100000000     0.041300000000     0.0544756  
H        H      0.965300000000     0.622400000000     0.097900000000     0.0544756  
H        H      0.822600000000     0.489600000000     0.085300000000     0.0544756  
H        H      0.307500000000     0.514000000000     0.097000000000     0.0544756  
H        H      0.449400000000     0.647000000000     0.106200000000     0.0544756  
H        H      0.217500000000     0.887700000000     0.073500000000     0.0544756  
H        H      0.073700000000     0.755100000000     0.066200000000     0.0544756  
H        H      0.549700000000     0.780400000000     0.058300000000     0.0544756  
H        H      0.382000000000     0.998400000000     0.125100000000     0.0544756  
H        H      0.054800000000     0.415200000000     0.606600000000     0.0544756  
H        H      0.651300000000     0.907900000000     0.241000000000     0.0544756  
H        H      0.587300000000     0.976600000000     0.308000000000     0.0544756  
H        H      0.410400000000     0.926400000000     0.324400000000     0.0544756  
H        H      0.361700000000     0.736300000000     0.204600000000     0.0544756  
H        H      0.537500000000     0.788400000000     0.187700000000     0.0544756  
H        H      0.073400000000     0.682000000000     0.249200000000     0.0544756  
H        H      0.924800000000     0.703200000000     0.184300000000     0.0544756  
H        H      0.066500000000     0.974200000000     0.143600000000     0.0544756  
H        H      0.227100000000     0.949100000000     0.204000000000     0.0544756  
H        H      0.094200000000     0.848100000000     0.319500000000     0.0544756  
H        H      0.071500000000     0.801100000000     0.397300000000     0.0544756  
H        H      0.353700000000     0.617200000000     0.412700000000     0.0544756  
H        H      0.379900000000     0.668500000000     0.335300000000     0.0544756  
H        H      0.412100000000     0.354700000000     0.559100000000     0.0544756  
H        H      0.175000000000     0.123100000000     0.532700000000     0.0544756  
H        H      0.083900000000     0.304400000000     0.528600000000     0.0544756  
H        H      0.533000000000     0.215000000000     0.528400000000     0.0544756  
H        H      0.671900000000     0.081900000000     0.541300000000     0.0544756  
H        H      0.465300000000     0.877600000000     0.597900000000     0.0544756  
H        H      0.322600000000     0.010400000000     0.585300000000     0.0544756  
H        H      0.807500000000     0.986000000000     0.597000000000     0.0544756  
H        H      0.949400000000     0.853000000000     0.606200000000     0.0544756  
H        H      0.717500000000     0.612300000000     0.573500000000     0.0544756  
H        H      0.573700000000     0.744900000000     0.566200000000     0.0544756  
H        H      0.049700000000     0.719600000000     0.558300000000     0.0544756  
H        H      0.882000000000     0.501600000000     0.625100000000     0.0544756  
C        C      0.968200000000     0.512300000000     0.401120000000     0.00188033 
C        C      0.419900000000     0.112400000000     0.753000000000     0.00188033 
C        C      0.458200000000     0.071800000000     0.712900000000     0.00188033 
C        C      0.563900000000     0.101400000000     0.702900000000     0.00188033 
C        C      0.631400000000     0.174500000000     0.735300000000     0.00188033 
C        C      0.593200000000     0.214700000000     0.774600000000     0.00188033 
C        C      0.487500000000     0.184300000000     0.784700000000     0.00188033 
C        C      0.834600000000     0.186100000000     0.765820000000     0.00188033 
C        C      0.925700000000     0.259400000000     0.772500000000     0.00188033 
C        C      0.015500000000     0.246300000000     0.811300000000     0.00188033 
C        C      0.015800000000     0.158600000000     0.843100000000     0.00188033 
C        C      0.930300000000     0.087200000000     0.835900000000     0.00188033 
C        C      0.834100000000     0.099400000000     0.798450000000     0.00188033 
C        C      0.120200000000     0.144200000000     0.884400000000     0.00188033 
C        C      0.759100000000     0.233600000000     0.680060000000     0.00188033 
C        C      0.852200000000     0.196800000000     0.661480000000     0.00188033 
C        C      0.866300000000     0.226100000000     0.614920000000     0.00188033 
C        C      0.790200000000     0.295200000000     0.585880000000     0.00188033 
C        C      0.697900000000     0.335000000000     0.605720000000     0.00188033 
C        C      0.682000000000     0.304500000000     0.652200000000     0.00188033 
C        C      0.806900000000     0.326700000000     0.535220000000     0.00188033 
C        C      0.658300000000     0.679800000000     0.447900000000     0.00188033 
C        C      0.788600000000     0.808600000000     0.462440000000     0.00188033 
C        C      0.838300000000     0.708500000000     0.464740000000     0.00188033 
C        C      0.586600000000     0.873900000000     0.443970000000     0.00188033 
C        C      0.480700000000     0.852500000000     0.457490000000     0.00188033 
C        C      0.398000000000     0.932100000000     0.449600000000     0.00188033 
C        C      0.415900000000     0.033800000000     0.428280000000     0.00188033 
C        C      0.521200000000     0.054300000000     0.415800000000     0.00188033 
C        C      0.607200000000     0.975000000000     0.423400000000     0.00188033 
C        C      0.325400000000     0.119500000000     0.420230000000     0.00188033 
C        C      0.211400000000     0.088500000000     0.407810000000     0.00188033 
C        C      0.126100000000     0.168000000000     0.402630000000     0.00188033 
C        C      0.154300000000     0.278600000000     0.410700000000     0.00188033 
C        C      0.264900000000     0.312800000000     0.421940000000     0.00188033 
C        C      0.350900000000     0.232800000000     0.426470000000     0.00188033 
C        C      0.970800000000     0.345900000000     0.427810000000     0.00188033 
C        C      0.064100000000     0.465600000000     0.390780000000     0.00188033 
C        C      0.468200000000     0.987700000000     0.901120000000     0.00188033 
C        C      0.919900000000     0.387600000000     0.253000000000     0.00188033 
C        C      0.958200000000     0.428200000000     0.212900000000     0.00188033 
C        C      0.063900000000     0.398600000000     0.202900000000     0.00188033 
C        C      0.131400000000     0.325500000000     0.235300000000     0.00188033 
C        C      0.093200000000     0.285300000000     0.274600000000     0.00188033 
C        C      0.987500000000     0.315700000000     0.284700000000     0.00188033 
C        C      0.334600000000     0.313900000000     0.265820000000     0.00188033 
C        C      0.425700000000     0.240600000000     0.272500000000     0.00188033 
C        C      0.515500000000     0.253700000000     0.311300000000     0.00188033 
C        C      0.515800000000     0.341400000000     0.343100000000     0.00188033 
C        C      0.430300000000     0.412800000000     0.335900000000     0.00188033 
C        C      0.334100000000     0.400600000000     0.298450000000     0.00188033 
C        C      0.620200000000     0.355800000000     0.384400000000     0.00188033 
C        C      0.259100000000     0.266400000000     0.180060000000     0.00188033 
C        C      0.352200000000     0.303200000000     0.161480000000     0.00188033 
C        C      0.366300000000     0.273900000000     0.114920000000     0.00188033 
C        C      0.290200000000     0.204800000000     0.085880000000     0.00188033 
C        C      0.197900000000     0.165000000000     0.105720000000     0.00188033 
C        C      0.182000000000     0.195500000000     0.152200000000     0.00188033 
C        C      0.306900000000     0.173300000000     0.035220000000     0.00188033 
C        C      0.158300000000     0.820200000000     0.947900000000     0.00188033 
C        C      0.288600000000     0.691400000000     0.962440000000     0.00188033 
C        C      0.338300000000     0.791500000000     0.964740000000     0.00188033 
C        C      0.086600000000     0.626100000000     0.943970000000     0.00188033 
C        C      0.980700000000     0.647500000000     0.957490000000     0.00188033 
C        C      0.898000000000     0.567900000000     0.949600000000     0.00188033 
C        C      0.915900000000     0.466200000000     0.928280000000     0.00188033 
C        C      0.021200000000     0.445700000000     0.915800000000     0.00188033 
C        C      0.107200000000     0.525000000000     0.923400000000     0.00188033 
C        C      0.825400000000     0.380500000000     0.920230000000     0.00188033 
C        C      0.711400000000     0.411500000000     0.907810000000     0.00188033 
C        C      0.626100000000     0.332000000000     0.902630000000     0.00188033 
C        C      0.654300000000     0.221400000000     0.910700000000     0.00188033 
C        C      0.764900000000     0.187200000000     0.921940000000     0.00188033 
C        C      0.850900000000     0.267200000000     0.926470000000     0.00188033 
C        C      0.470800000000     0.154100000000     0.927810000000     0.00188033 
C        C      0.564100000000     0.034400000000     0.890780000000     0.00188033 
C        C      0.531800000000     0.012300000000     0.098880000000     0.00188033 
C        C      0.080100000000     0.612400000000     0.747000000000     0.00188033 
C        C      0.041800000000     0.571800000000     0.787100000000     0.00188033 
C        C      0.936100000000     0.601400000000     0.797100000000     0.00188033 
C        C      0.868600000000     0.674500000000     0.764700000000     0.00188033 
C        C      0.906800000000     0.714700000000     0.725400000000     0.00188033 
C        C      0.012500000000     0.684300000000     0.715300000000     0.00188033 
C        C      0.665400000000     0.686100000000     0.734180000000     0.00188033 
C        C      0.574300000000     0.759400000000     0.727500000000     0.00188033 
C        C      0.484500000000     0.746300000000     0.688700000000     0.00188033 
C        C      0.484200000000     0.658600000000     0.656900000000     0.00188033 
C        C      0.569700000000     0.587200000000     0.664100000000     0.00188033 
C        C      0.665900000000     0.599400000000     0.701550000000     0.00188033 
C        C      0.379800000000     0.644200000000     0.615600000000     0.00188033 
C        C      0.740900000000     0.733600000000     0.819940000000     0.00188033 
C        C      0.647800000000     0.696800000000     0.838520000000     0.00188033 
C        C      0.633700000000     0.726100000000     0.885080000000     0.00188033 
C        C      0.709800000000     0.795200000000     0.914120000000     0.00188033 
C        C      0.802100000000     0.835000000000     0.894280000000     0.00188033 
C        C      0.818000000000     0.804500000000     0.847800000000     0.00188033 
C        C      0.693100000000     0.826700000000     0.964780000000     0.00188033 
C        C      0.841700000000     0.179800000000     0.052100000000     0.00188033 
C        C      0.711400000000     0.308600000000     0.037560000000     0.00188033 
C        C      0.661700000000     0.208500000000     0.035260000000     0.00188033 
C        C      0.913400000000     0.373900000000     0.056030000000     0.00188033 
C        C      0.019300000000     0.352500000000     0.042510000000     0.00188033 
C        C      0.102000000000     0.432100000000     0.050400000000     0.00188033 
C        C      0.084100000000     0.533800000000     0.071720000000     0.00188033 
C        C      0.978800000000     0.554300000000     0.084200000000     0.00188033 
C        C      0.892800000000     0.475000000000     0.076600000000     0.00188033 
C        C      0.174600000000     0.619500000000     0.079770000000     0.00188033 
C        C      0.288600000000     0.588500000000     0.092190000000     0.00188033 
C        C      0.373900000000     0.668000000000     0.097370000000     0.00188033 
C        C      0.345700000000     0.778600000000     0.089300000000     0.00188033 
C        C      0.235100000000     0.812800000000     0.078060000000     0.00188033 
C        C      0.149100000000     0.732800000000     0.073530000000     0.00188033 
C        C      0.529200000000     0.845900000000     0.072190000000     0.00188033 
C        C      0.435900000000     0.965600000000     0.109220000000     0.00188033 
C        C      0.031800000000     0.487700000000     0.598880000000     0.00188033 
C        C      0.580100000000     0.887600000000     0.247000000000     0.00188033 
C        C      0.541800000000     0.928200000000     0.287100000000     0.00188033 
C        C      0.436100000000     0.898600000000     0.297100000000     0.00188033 
C        C      0.368600000000     0.825500000000     0.264700000000     0.00188033 
C        C      0.406800000000     0.785300000000     0.225400000000     0.00188033 
C        C      0.512500000000     0.815700000000     0.215300000000     0.00188033 
C        C      0.165400000000     0.813900000000     0.234180000000     0.00188033 
C        C      0.074300000000     0.740600000000     0.227500000000     0.00188033 
C        C      0.984500000000     0.753700000000     0.188700000000     0.00188033 
C        C      0.984200000000     0.841400000000     0.156900000000     0.00188033 
C        C      0.069700000000     0.912800000000     0.164100000000     0.00188033 
C        C      0.165900000000     0.900600000000     0.201550000000     0.00188033 
C        C      0.879800000000     0.855800000000     0.115600000000     0.00188033 
C        C      0.240900000000     0.766400000000     0.319940000000     0.00188033 
C        C      0.147800000000     0.803200000000     0.338520000000     0.00188033 
C        C      0.133700000000     0.773900000000     0.385080000000     0.00188033 
C        C      0.209800000000     0.704800000000     0.414120000000     0.00188033 
C        C      0.302100000000     0.665000000000     0.394280000000     0.00188033 
C        C      0.318000000000     0.695500000000     0.347800000000     0.00188033 
C        C      0.193100000000     0.673300000000     0.464780000000     0.00188033 
C        C      0.341700000000     0.320200000000     0.552100000000     0.00188033 
C        C      0.211400000000     0.191400000000     0.537560000000     0.00188033 
C        C      0.161700000000     0.291500000000     0.535260000000     0.00188033 
C        C      0.413400000000     0.126100000000     0.556030000000     0.00188033 
C        C      0.519300000000     0.147500000000     0.542510000000     0.00188033 
C        C      0.602000000000     0.067900000000     0.550400000000     0.00188033 
C        C      0.584100000000     0.966200000000     0.571720000000     0.00188033 
C        C      0.478800000000     0.945700000000     0.584200000000     0.00188033 
C        C      0.392800000000     0.025000000000     0.576600000000     0.00188033 
C        C      0.674600000000     0.880500000000     0.579770000000     0.00188033 
C        C      0.788600000000     0.911500000000     0.592190000000     0.00188033 
C        C      0.873900000000     0.832000000000     0.597370000000     0.00188033 
C        C      0.845700000000     0.721400000000     0.589300000000     0.00188033 
C        C      0.735100000000     0.687200000000     0.578060000000     0.00188033 
C        C      0.649100000000     0.767200000000     0.573530000000     0.00188033 
C        C      0.029200000000     0.654100000000     0.572190000000     0.00188033 
C        C      0.935900000000     0.534400000000     0.609220000000     0.00188033 
N        N      0.910400000000     0.438100000000     0.424380000000    -0.162118   
N        N      0.743200000000     0.202300000000     0.727120000000    -0.162118   
N        N      0.755000000000     0.627200000000     0.455490000000    -0.162118   
N        N      0.673500000000     0.791000000000     0.451570000000    -0.162118   
N        N      0.064600000000     0.358700000000     0.408870000000    -0.162118   
N        N      0.410400000000     0.061900000000     0.924380000000    -0.162118   
N        N      0.243200000000     0.297700000000     0.227120000000    -0.162118   
N        N      0.255000000000     0.872800000000     0.955490000000    -0.162118   
N        N      0.173500000000     0.709000000000     0.951570000000    -0.162118   
N        N      0.564600000000     0.141300000000     0.908870000000    -0.162118   
N        N      0.589600000000     0.938100000000     0.075620000000    -0.162118   
N        N      0.756800000000     0.702300000000     0.772880000000    -0.162118   
N        N      0.745000000000     0.127200000000     0.044510000000    -0.162118   
N        N      0.826500000000     0.291000000000     0.048430000000    -0.162118   
N        N      0.435400000000     0.858700000000     0.091130000000    -0.162118   
N        N      0.089600000000     0.561900000000     0.575620000000    -0.162118   
N        N      0.256800000000     0.797700000000     0.272880000000    -0.162118   
N        N      0.245000000000     0.372800000000     0.544510000000    -0.162118   
N        N      0.326500000000     0.209000000000     0.548430000000    -0.162118   
N        N      0.935400000000     0.641300000000     0.591130000000    -0.162118   
O        O      0.745500000000     0.407300000000     0.515500000000    -0.290354   
O        O      0.875400000000     0.275700000000     0.515510000000    -0.290354   
O        O      0.189000000000     0.218500000000     0.894300000000    -0.290354   
O        O      0.121000000000     0.055400000000     0.906960000000    -0.290354   
O        O      0.245500000000     0.092700000000     0.015500000000    -0.290354   
O        O      0.375400000000     0.224300000000     0.015510000000    -0.290354   
O        O      0.689000000000     0.281500000000     0.394300000000    -0.290354   
O        O      0.621000000000     0.444600000000     0.406960000000    -0.290354   
O        O      0.754500000000     0.907300000000     0.984500000000    -0.290354   
O        O      0.624600000000     0.775700000000     0.984490000000    -0.290354   
O        O      0.311000000000     0.718500000000     0.605700000000    -0.290354   
O        O      0.379000000000     0.555400000000     0.593040000000    -0.290354   
O        O      0.254500000000     0.592700000000     0.484500000000    -0.290354   
O        O      0.124600000000     0.724300000000     0.484490000000    -0.290354   
O        O      0.811000000000     0.781500000000     0.105700000000    -0.290354   
O        O      0.879000000000     0.944600000000     0.093040000000    -0.290354   


