data_XEXLOD_original

_audit_creation_method RASPA-1.0
_audit_creation_date 2022-1-28
_audit_author_name 'Felipe Lopes de Oliveira <felipe.lopes.oliveira@ibm.com>'

_cell_length_a    5.5797
_cell_length_b    16.7931
_cell_length_c    25.9231
_cell_angle_alpha 90
_cell_angle_beta  90
_cell_angle_gamma 98.575
_cell_volume      2401.85

_symmetry_cell_setting          triclinic
_symmetry_space_group_name_Hall 'P 1'
_symmetry_space_group_name_H-M  'P 1'
_symmetry_Int_Tables_number     1

_symmetry_equiv_pos_as_xyz 'x,y,z'

loop_
_atom_site_label
_atom_site_type_symbol
_atom_site_fract_x
_atom_site_fract_y
_atom_site_fract_z
_atom_site_charge
Zn       Zn     0.119230000000     0.579620000000     0.520870000000     0.469022   
Zn       Zn     0.880770000000     0.920380000000     0.020870000000     0.469022   
Zn       Zn     0.880770000000     0.420380000000     0.479130000000     0.469022   
Zn       Zn     0.119230000000     0.079620000000     0.979130000000     0.469022   
H        H      0.447900000000     0.871900000000     0.088400000000     0.0690212  
H        H      0.382100000000     0.798200000000     0.164700000000     0.0690212  
H        H      0.956500000000     0.686900000000     0.128600000000     0.0690212  
H        H      0.010000000000     0.764900000000     0.054300000000     0.0690212  
H        H      0.116900000000     0.531200000000     0.249700000000     0.0690212  
H        H      0.058600000000     0.479200000000     0.333800000000     0.0690212  
H        H      0.063400000000     0.701100000000     0.404500000000     0.0690212  
H        H      0.105200000000     0.754400000000     0.321400000000     0.0690212  
H        H      0.552100000000     0.628100000000     0.588400000000     0.0690212  
H        H      0.617900000000     0.701800000000     0.664700000000     0.0690212  
H        H      0.043500000000     0.813100000000     0.628600000000     0.0690212  
H        H      0.990000000000     0.735100000000     0.554300000000     0.0690212  
H        H      0.883100000000     0.968800000000     0.749700000000     0.0690212  
H        H      0.941400000000     0.020800000000     0.833800000000     0.0690212  
H        H      0.936600000000     0.798900000000     0.904500000000     0.0690212  
H        H      0.894800000000     0.745600000000     0.821400000000     0.0690212  
H        H      0.552100000000     0.128100000000     0.911600000000     0.0690212  
H        H      0.617900000000     0.201800000000     0.835300000000     0.0690212  
H        H      0.043500000000     0.313100000000     0.871400000000     0.0690212  
H        H      0.990000000000     0.235100000000     0.945700000000     0.0690212  
H        H      0.883100000000     0.468800000000     0.750300000000     0.0690212  
H        H      0.941400000000     0.520800000000     0.666200000000     0.0690212  
H        H      0.936600000000     0.298900000000     0.595500000000     0.0690212  
H        H      0.894800000000     0.245600000000     0.678600000000     0.0690212  
H        H      0.447900000000     0.371900000000     0.411600000000     0.0690212  
H        H      0.382100000000     0.298200000000     0.335300000000     0.0690212  
H        H      0.956500000000     0.186900000000     0.371400000000     0.0690212  
H        H      0.010000000000     0.264900000000     0.445700000000     0.0690212  
H        H      0.116900000000     0.031200000000     0.250300000000     0.0690212  
H        H      0.058600000000     0.979200000000     0.166200000000     0.0690212  
H        H      0.063400000000     0.201100000000     0.095500000000     0.0690212  
H        H      0.105200000000     0.254400000000     0.178600000000     0.0690212  
C        C      0.554700000000     0.835100000000     0.097460000000     0.0500433  
C        C      0.514400000000     0.791700000000     0.142810000000     0.0500433  
C        C      0.672300000000     0.738900000000     0.155280000000     0.0500433  
C        C      0.854400000000     0.726100000000     0.121600000000     0.0500433  
C        C      0.883200000000     0.772200000000     0.077470000000     0.0500433  
C        C      0.446100000000     0.642600000000     0.213410000000     0.0500433  
C        C      0.424500000000     0.606900000000     0.265940000000     0.0500433  
C        C      0.597600000000     0.632200000000     0.304210000000     0.0500433  
C        C      0.802200000000     0.689200000000     0.292480000000     0.0500433  
C        C      0.836400000000     0.724100000000     0.239980000000     0.0500433  
C        C      0.228500000000     0.549900000000     0.276320000000     0.0500433  
C        C      0.193800000000     0.519200000000     0.326720000000     0.0500433  
C        C      0.351800000000     0.545900000000     0.365750000000     0.0500433  
C        C      0.565600000000     0.600640000000     0.355350000000     0.0500433  
C        C      0.750100000000     0.626800000000     0.392320000000     0.0500433  
C        C      0.944300000000     0.683200000000     0.379210000000     0.0500433  
C        C      0.970400000000     0.714900000000     0.329560000000     0.0500433  
C        C      0.263900000000     0.523900000000     0.419710000000     0.0500433  
C        C      0.773900000000     0.586000000000     0.443730000000     0.0500433  
C        C      0.445300000000     0.664900000000     0.597460000000     0.0500433  
C        C      0.485600000000     0.708300000000     0.642810000000     0.0500433  
C        C      0.327700000000     0.761100000000     0.655280000000     0.0500433  
C        C      0.145600000000     0.773900000000     0.621600000000     0.0500433  
C        C      0.116800000000     0.727800000000     0.577470000000     0.0500433  
C        C      0.553900000000     0.857400000000     0.713410000000     0.0500433  
C        C      0.575500000000     0.893100000000     0.765940000000     0.0500433  
C        C      0.402400000000     0.867800000000     0.804210000000     0.0500433  
C        C      0.197800000000     0.810800000000     0.792480000000     0.0500433  
C        C      0.163600000000     0.775900000000     0.739980000000     0.0500433  
C        C      0.771500000000     0.950100000000     0.776320000000     0.0500433  
C        C      0.806200000000     0.980800000000     0.826720000000     0.0500433  
C        C      0.648200000000     0.954100000000     0.865750000000     0.0500433  
C        C      0.434400000000     0.899360000000     0.855350000000     0.0500433  
C        C      0.249900000000     0.873200000000     0.892320000000     0.0500433  
C        C      0.055700000000     0.816800000000     0.879210000000     0.0500433  
C        C      0.029600000000     0.785100000000     0.829560000000     0.0500433  
C        C      0.736100000000     0.976100000000     0.919710000000     0.0500433  
C        C      0.226100000000     0.914000000000     0.943730000000     0.0500433  
C        C      0.445300000000     0.164900000000     0.902540000000     0.0500433  
C        C      0.485600000000     0.208300000000     0.857190000000     0.0500433  
C        C      0.327700000000     0.261100000000     0.844720000000     0.0500433  
C        C      0.145600000000     0.273900000000     0.878400000000     0.0500433  
C        C      0.116800000000     0.227800000000     0.922530000000     0.0500433  
C        C      0.553900000000     0.357400000000     0.786590000000     0.0500433  
C        C      0.575500000000     0.393100000000     0.734060000000     0.0500433  
C        C      0.402400000000     0.367800000000     0.695790000000     0.0500433  
C        C      0.197800000000     0.310800000000     0.707520000000     0.0500433  
C        C      0.163600000000     0.275900000000     0.760020000000     0.0500433  
C        C      0.771500000000     0.450100000000     0.723680000000     0.0500433  
C        C      0.806200000000     0.480800000000     0.673280000000     0.0500433  
C        C      0.648200000000     0.454100000000     0.634250000000     0.0500433  
C        C      0.434400000000     0.399360000000     0.644650000000     0.0500433  
C        C      0.249900000000     0.373200000000     0.607680000000     0.0500433  
C        C      0.055700000000     0.316800000000     0.620790000000     0.0500433  
C        C      0.029600000000     0.285100000000     0.670440000000     0.0500433  
C        C      0.736100000000     0.476100000000     0.580290000000     0.0500433  
C        C      0.226100000000     0.414000000000     0.556270000000     0.0500433  
C        C      0.554700000000     0.335100000000     0.402540000000     0.0500433  
C        C      0.514400000000     0.291700000000     0.357190000000     0.0500433  
C        C      0.672300000000     0.238900000000     0.344720000000     0.0500433  
C        C      0.854400000000     0.226100000000     0.378400000000     0.0500433  
C        C      0.883200000000     0.272200000000     0.422530000000     0.0500433  
C        C      0.446100000000     0.142600000000     0.286590000000     0.0500433  
C        C      0.424500000000     0.106900000000     0.234060000000     0.0500433  
C        C      0.597600000000     0.132200000000     0.195790000000     0.0500433  
C        C      0.802200000000     0.189200000000     0.207520000000     0.0500433  
C        C      0.836400000000     0.224100000000     0.260020000000     0.0500433  
C        C      0.228500000000     0.049900000000     0.223680000000     0.0500433  
C        C      0.193800000000     0.019200000000     0.173280000000     0.0500433  
C        C      0.351800000000     0.045900000000     0.134250000000     0.0500433  
C        C      0.565600000000     0.100640000000     0.144650000000     0.0500433  
C        C      0.750100000000     0.126800000000     0.107680000000     0.0500433  
C        C      0.944300000000     0.183200000000     0.120790000000     0.0500433  
C        C      0.970400000000     0.214900000000     0.170440000000     0.0500433  
C        C      0.263900000000     0.023900000000     0.080290000000     0.0500433  
C        C      0.773900000000     0.086000000000     0.056270000000     0.0500433  
N        N      0.739500000000     0.826870000000     0.065850000000    -0.186645   
N        N      0.652100000000     0.699650000000     0.204580000000    -0.186645   
N        N      0.260500000000     0.673130000000     0.565850000000    -0.186645   
N        N      0.347900000000     0.800350000000     0.704580000000    -0.186645   
N        N      0.260500000000     0.173130000000     0.934150000000    -0.186645   
N        N      0.347900000000     0.300350000000     0.795420000000    -0.186645   
N        N      0.739500000000     0.326870000000     0.434150000000    -0.186645   
N        N      0.652100000000     0.199650000000     0.295420000000    -0.186645   
O        O      0.289100000000     0.579930000000     0.452420000000    -0.266454   
O        O      0.154800000000     0.454650000000     0.426250000000    -0.266454   
O        O      0.727900000000     0.510540000000     0.444010000000    -0.266454   
O        O      0.862400000000     0.630060000000     0.480110000000    -0.266454   
O        O      0.299000000000     0.625870000000     0.179560000000    -0.266454   
O        O      0.010800000000     0.773350000000     0.228330000000    -0.266454   
O        O      0.710900000000     0.920070000000     0.952420000000    -0.266454   
O        O      0.845200000000     0.045350000000     0.926250000000    -0.266454   
O        O      0.272100000000     0.989460000000     0.944010000000    -0.266454   
O        O      0.137600000000     0.869940000000     0.980110000000    -0.266454   
O        O      0.701000000000     0.874130000000     0.679560000000    -0.266454   
O        O      0.989200000000     0.726650000000     0.728330000000    -0.266454   
O        O      0.710900000000     0.420070000000     0.547580000000    -0.266454   
O        O      0.845200000000     0.545350000000     0.573750000000    -0.266454   
O        O      0.272100000000     0.489460000000     0.555990000000    -0.266454   
O        O      0.137600000000     0.369940000000     0.519890000000    -0.266454   
O        O      0.701000000000     0.374130000000     0.820440000000    -0.266454   
O        O      0.989200000000     0.226650000000     0.771670000000    -0.266454   
O        O      0.289100000000     0.079930000000     0.047580000000    -0.266454   
O        O      0.154800000000     0.954650000000     0.073750000000    -0.266454   
O        O      0.727900000000     0.010540000000     0.055990000000    -0.266454   
O        O      0.862400000000     0.130060000000     0.019890000000    -0.266454   
O        O      0.299000000000     0.125870000000     0.320440000000    -0.266454   
O        O      0.010800000000     0.273350000000     0.271670000000    -0.266454   


