data_XEXMEU_original

_audit_creation_method RASPA-1.0
_audit_creation_date 2022-1-30
_audit_author_name 'Felipe Lopes de Oliveira <felipe.lopes.oliveira@ibm.com>'

_cell_length_a    5.6364
_cell_length_b    18.8863
_cell_length_c    25.301
_cell_angle_alpha 90
_cell_angle_beta  90
_cell_angle_gamma 95.47
_cell_volume      2681.05

_symmetry_cell_setting          triclinic
_symmetry_space_group_name_Hall 'P 1'
_symmetry_space_group_name_H-M  'P 1'
_symmetry_Int_Tables_number     1

_symmetry_equiv_pos_as_xyz 'x,y,z'

loop_
_atom_site_label
_atom_site_type_symbol
_atom_site_fract_x
_atom_site_fract_y
_atom_site_fract_z
_atom_site_charge
Zn       Zn     0.103000000000     0.560250000000     0.533320000000     0.467952   
Zn       Zn     0.897000000000     0.939750000000     0.033320000000     0.467952   
Zn       Zn     0.897000000000     0.439750000000     0.466680000000     0.467952   
Zn       Zn     0.103000000000     0.060250000000     0.966680000000     0.467952   
H        H      0.475300000000     0.910600000000     0.107400000000     0.0687436  
H        H      0.390800000000     0.845300000000     0.184200000000     0.0687436  
H        H      0.987000000000     0.745400000000     0.158300000000     0.0687436  
H        H      0.058400000000     0.815500000000     0.084300000000     0.0687436  
H        H      0.127000000000     0.600800000000     0.256900000000     0.0687436  
H        H      0.072800000000     0.534400000000     0.334800000000     0.0687436  
H        H      0.029500000000     0.707400000000     0.432500000000     0.0687436  
H        H      0.067100000000     0.776100000000     0.355800000000     0.0687436  
H        H      0.524700000000     0.589400000000     0.607400000000     0.0687436  
H        H      0.609200000000     0.654700000000     0.684200000000     0.0687436  
H        H      0.013000000000     0.754600000000     0.658300000000     0.0687436  
H        H      0.941600000000     0.684500000000     0.584300000000     0.0687436  
H        H      0.873000000000     0.899200000000     0.756900000000     0.0687436  
H        H      0.927200000000     0.965600000000     0.834800000000     0.0687436  
H        H      0.970500000000     0.792600000000     0.932500000000     0.0687436  
H        H      0.932900000000     0.723900000000     0.855800000000     0.0687436  
H        H      0.524700000000     0.089400000000     0.892600000000     0.0687436  
H        H      0.609200000000     0.154700000000     0.815800000000     0.0687436  
H        H      0.013000000000     0.254600000000     0.841700000000     0.0687436  
H        H      0.941600000000     0.184500000000     0.915700000000     0.0687436  
H        H      0.873000000000     0.399200000000     0.743100000000     0.0687436  
H        H      0.927200000000     0.465600000000     0.665200000000     0.0687436  
H        H      0.970500000000     0.292600000000     0.567500000000     0.0687436  
H        H      0.932900000000     0.223900000000     0.644200000000     0.0687436  
H        H      0.475300000000     0.410600000000     0.392600000000     0.0687436  
H        H      0.390800000000     0.345300000000     0.315800000000     0.0687436  
H        H      0.987000000000     0.245400000000     0.341700000000     0.0687436  
H        H      0.058400000000     0.315500000000     0.415700000000     0.0687436  
H        H      0.127000000000     0.100800000000     0.243100000000     0.0687436  
H        H      0.072800000000     0.034400000000     0.165200000000     0.0687436  
H        H      0.029500000000     0.207400000000     0.067500000000     0.0687436  
H        H      0.067100000000     0.276100000000     0.144200000000     0.0687436  
C        C      0.581300000000     0.877400000000     0.118610000000     0.0493924  
C        C      0.529900000000     0.839000000000     0.164130000000     0.0493924  
C        C      0.687300000000     0.791100000000     0.179760000000     0.0493924  
C        C      0.883000000000     0.780200000000     0.149090000000     0.0493924  
C        C      0.921200000000     0.821300000000     0.105100000000     0.0493924  
C        C      0.450900000000     0.702200000000     0.232090000000     0.0493924  
C        C      0.423900000000     0.661100000000     0.281700000000     0.0493924  
C        C      0.588700000000     0.673400000000     0.323220000000     0.0493924  
C        C      0.784700000000     0.726800000000     0.318170000000     0.0493924  
C        C      0.820600000000     0.767200000000     0.268810000000     0.0493924  
C        C      0.234700000000     0.609500000000     0.285590000000     0.0493924  
C        C      0.203400000000     0.570000000000     0.332100000000     0.0493924  
C        C      0.357300000000     0.581300000000     0.374280000000     0.0493924  
C        C      0.561200000000     0.632200000000     0.370260000000     0.0493924  
C        C      0.738500000000     0.644000000000     0.409980000000     0.0493924  
C        C      0.918500000000     0.698000000000     0.404510000000     0.0493924  
C        C      0.941100000000     0.739100000000     0.358710000000     0.0493924  
C        C      0.275200000000     0.544800000000     0.424830000000     0.0493924  
C        C      0.774400000000     0.592900000000     0.454610000000     0.0493924  
C        C      0.418700000000     0.622600000000     0.618610000000     0.0493924  
C        C      0.470100000000     0.661000000000     0.664130000000     0.0493924  
C        C      0.312700000000     0.708900000000     0.679760000000     0.0493924  
C        C      0.117000000000     0.719800000000     0.649090000000     0.0493924  
C        C      0.078800000000     0.678700000000     0.605100000000     0.0493924  
C        C      0.549100000000     0.797800000000     0.732090000000     0.0493924  
C        C      0.576100000000     0.838900000000     0.781700000000     0.0493924  
C        C      0.411300000000     0.826600000000     0.823220000000     0.0493924  
C        C      0.215300000000     0.773200000000     0.818170000000     0.0493924  
C        C      0.179400000000     0.732800000000     0.768810000000     0.0493924  
C        C      0.765300000000     0.890500000000     0.785590000000     0.0493924  
C        C      0.796600000000     0.930000000000     0.832100000000     0.0493924  
C        C      0.642700000000     0.918700000000     0.874280000000     0.0493924  
C        C      0.438800000000     0.867800000000     0.870260000000     0.0493924  
C        C      0.261500000000     0.856000000000     0.909980000000     0.0493924  
C        C      0.081500000000     0.802000000000     0.904510000000     0.0493924  
C        C      0.058900000000     0.760900000000     0.858710000000     0.0493924  
C        C      0.724800000000     0.955200000000     0.924830000000     0.0493924  
C        C      0.225600000000     0.907100000000     0.954610000000     0.0493924  
C        C      0.418700000000     0.122600000000     0.881390000000     0.0493924  
C        C      0.470100000000     0.161000000000     0.835870000000     0.0493924  
C        C      0.312700000000     0.208900000000     0.820240000000     0.0493924  
C        C      0.117000000000     0.219800000000     0.850910000000     0.0493924  
C        C      0.078800000000     0.178700000000     0.894900000000     0.0493924  
C        C      0.549100000000     0.297800000000     0.767910000000     0.0493924  
C        C      0.576100000000     0.338900000000     0.718300000000     0.0493924  
C        C      0.411300000000     0.326600000000     0.676780000000     0.0493924  
C        C      0.215300000000     0.273200000000     0.681830000000     0.0493924  
C        C      0.179400000000     0.232800000000     0.731190000000     0.0493924  
C        C      0.765300000000     0.390500000000     0.714410000000     0.0493924  
C        C      0.796600000000     0.430000000000     0.667900000000     0.0493924  
C        C      0.642700000000     0.418700000000     0.625720000000     0.0493924  
C        C      0.438800000000     0.367800000000     0.629740000000     0.0493924  
C        C      0.261500000000     0.356000000000     0.590020000000     0.0493924  
C        C      0.081500000000     0.302000000000     0.595490000000     0.0493924  
C        C      0.058900000000     0.260900000000     0.641290000000     0.0493924  
C        C      0.724800000000     0.455200000000     0.575170000000     0.0493924  
C        C      0.225600000000     0.407100000000     0.545390000000     0.0493924  
C        C      0.581300000000     0.377400000000     0.381390000000     0.0493924  
C        C      0.529900000000     0.339000000000     0.335870000000     0.0493924  
C        C      0.687300000000     0.291100000000     0.320240000000     0.0493924  
C        C      0.883000000000     0.280200000000     0.350910000000     0.0493924  
C        C      0.921200000000     0.321300000000     0.394900000000     0.0493924  
C        C      0.450900000000     0.202200000000     0.267910000000     0.0493924  
C        C      0.423900000000     0.161100000000     0.218300000000     0.0493924  
C        C      0.588700000000     0.173400000000     0.176780000000     0.0493924  
C        C      0.784700000000     0.226800000000     0.181830000000     0.0493924  
C        C      0.820600000000     0.267200000000     0.231190000000     0.0493924  
C        C      0.234700000000     0.109500000000     0.214410000000     0.0493924  
C        C      0.203400000000     0.070000000000     0.167900000000     0.0493924  
C        C      0.357300000000     0.081300000000     0.125720000000     0.0493924  
C        C      0.561200000000     0.132200000000     0.129740000000     0.0493924  
C        C      0.738500000000     0.144000000000     0.090020000000     0.0493924  
C        C      0.918500000000     0.198000000000     0.095490000000     0.0493924  
C        C      0.941100000000     0.239100000000     0.141290000000     0.0493924  
C        C      0.275200000000     0.044800000000     0.075170000000     0.0493924  
C        C      0.774400000000     0.092900000000     0.045390000000     0.0493924  
N        N      0.775900000000     0.869450000000     0.089520000000    -0.185613   
N        N      0.651200000000     0.752900000000     0.229030000000    -0.185613   
N        N      0.224100000000     0.630550000000     0.589520000000    -0.185613   
N        N      0.348800000000     0.747100000000     0.729030000000    -0.185613   
N        N      0.224100000000     0.130550000000     0.910480000000    -0.185613   
N        N      0.348800000000     0.247100000000     0.770970000000    -0.185613   
N        N      0.775900000000     0.369450000000     0.410480000000    -0.185613   
N        N      0.651200000000     0.252900000000     0.270970000000    -0.185613   
O        O      0.290200000000     0.582000000000     0.466350000000    -0.264188   
O        O      0.178600000000     0.482320000000     0.420840000000    -0.264188   
O        O      0.741200000000     0.527700000000     0.442930000000    -0.264188   
O        O      0.854900000000     0.618300000000     0.497150000000    -0.264188   
O        O      0.315400000000     0.694220000000     0.194830000000    -0.264188   
O        O      0.987400000000     0.811900000000     0.261880000000    -0.264188   
O        O      0.709800000000     0.918000000000     0.966350000000    -0.264188   
O        O      0.821400000000     0.017680000000     0.920840000000    -0.264188   
O        O      0.258800000000     0.972300000000     0.942930000000    -0.264188   
O        O      0.145100000000     0.881700000000     0.997150000000    -0.264188   
O        O      0.684600000000     0.805780000000     0.694830000000    -0.264188   
O        O      0.012600000000     0.688100000000     0.761880000000    -0.264188   
O        O      0.709800000000     0.418000000000     0.533650000000    -0.264188   
O        O      0.821400000000     0.517680000000     0.579160000000    -0.264188   
O        O      0.258800000000     0.472300000000     0.557070000000    -0.264188   
O        O      0.145100000000     0.381700000000     0.502850000000    -0.264188   
O        O      0.684600000000     0.305780000000     0.805170000000    -0.264188   
O        O      0.012600000000     0.188100000000     0.738120000000    -0.264188   
O        O      0.290200000000     0.082000000000     0.033650000000    -0.264188   
O        O      0.178600000000     0.982320000000     0.079160000000    -0.264188   
O        O      0.741200000000     0.027700000000     0.057070000000    -0.264188   
O        O      0.854900000000     0.118300000000     0.002850000000    -0.264188   
O        O      0.315400000000     0.194220000000     0.305170000000    -0.264188   
O        O      0.987400000000     0.311900000000     0.238120000000    -0.264188   


