data_XIDBUJ_original

_audit_creation_method RASPA-1.0
_audit_creation_date 2022-1-30
_audit_author_name 'Felipe Lopes de Oliveira <felipe.lopes.oliveira@ibm.com>'

_cell_length_a    11.721
_cell_length_b    14.9546
_cell_length_c    14.9546
_cell_angle_alpha 96.4485
_cell_angle_beta  107.06
_cell_angle_gamma 107.06
_cell_volume      2338.56

_symmetry_cell_setting          triclinic
_symmetry_space_group_name_Hall 'P 1'
_symmetry_space_group_name_H-M  'P 1'
_symmetry_Int_Tables_number     1

_symmetry_equiv_pos_as_xyz 'x,y,z'

loop_
_atom_site_label
_atom_site_type_symbol
_atom_site_fract_x
_atom_site_fract_y
_atom_site_fract_z
_atom_site_charge
Zn       Zn     0.881900000000     0.805430000000     0.560810000000     0.429866   
Zn       Zn     0.881900000000     0.560810000000     0.805430000000     0.429866   
Zn       Zn     0.118100000000     0.439190000000     0.194570000000     0.429866   
Zn       Zn     0.118100000000     0.194570000000     0.439190000000     0.429866   
H        H      0.080500000000     0.740400000000     0.509800000000     0.0590959  
H        H      0.293000000000     0.795700000000     0.530700000000     0.0590959  
H        H      0.314800000000     0.050300000000     0.661500000000     0.0590959  
H        H      0.104900000000     0.988700000000     0.639500000000     0.0590959  
H        H      0.495500000000     0.846900000000     0.568500000000     0.0590959  
H        H      0.807400000000     0.082600000000     0.657600000000     0.0590959  
H        H      0.951600000000     0.379800000000     0.848000000000     0.0590959  
H        H      0.871600000000     0.216500000000     0.795100000000     0.0590959  
H        H      0.554900000000     0.243900000000     0.624500000000     0.0590959  
H        H      0.644600000000     0.404900000000     0.678100000000     0.0590959  
H        H      0.080500000000     0.509800000000     0.740400000000     0.0590959  
H        H      0.293000000000     0.530700000000     0.795700000000     0.0590959  
H        H      0.314800000000     0.661500000000     0.050300000000     0.0590959  
H        H      0.104900000000     0.639500000000     0.988700000000     0.0590959  
H        H      0.495500000000     0.568500000000     0.846900000000     0.0590959  
H        H      0.807400000000     0.657600000000     0.082600000000     0.0590959  
H        H      0.951600000000     0.848000000000     0.379800000000     0.0590959  
H        H      0.871600000000     0.795100000000     0.216500000000     0.0590959  
H        H      0.554900000000     0.624500000000     0.243900000000     0.0590959  
H        H      0.644600000000     0.678100000000     0.404900000000     0.0590959  
H        H      0.919500000000     0.490200000000     0.259600000000     0.0590959  
H        H      0.707000000000     0.469300000000     0.204300000000     0.0590959  
H        H      0.685200000000     0.338500000000     0.949700000000     0.0590959  
H        H      0.895100000000     0.360500000000     0.011300000000     0.0590959  
H        H      0.504500000000     0.431500000000     0.153100000000     0.0590959  
H        H      0.192600000000     0.342400000000     0.917400000000     0.0590959  
H        H      0.048400000000     0.152000000000     0.620200000000     0.0590959  
H        H      0.128400000000     0.204900000000     0.783500000000     0.0590959  
H        H      0.445100000000     0.375500000000     0.756100000000     0.0590959  
H        H      0.355400000000     0.321900000000     0.595100000000     0.0590959  
H        H      0.919500000000     0.259600000000     0.490200000000     0.0590959  
H        H      0.707000000000     0.204300000000     0.469300000000     0.0590959  
H        H      0.685200000000     0.949700000000     0.338500000000     0.0590959  
H        H      0.895100000000     0.011300000000     0.360500000000     0.0590959  
H        H      0.504500000000     0.153100000000     0.431500000000     0.0590959  
H        H      0.192600000000     0.917400000000     0.342400000000     0.0590959  
H        H      0.048400000000     0.620200000000     0.152000000000     0.0590959  
H        H      0.128400000000     0.783500000000     0.204900000000     0.0590959  
H        H      0.445100000000     0.756100000000     0.375500000000     0.0590959  
H        H      0.355400000000     0.595100000000     0.321900000000     0.0590959  
C        C      0.128600000000     0.803700000000     0.541300000000     0.0253985  
C        C      0.256600000000     0.836600000000     0.553400000000     0.0253985  
C        C      0.330300000000     0.930400000000     0.599600000000     0.0253985  
C        C      0.269500000000     0.986500000000     0.630700000000     0.0253985  
C        C      0.143100000000     0.949100000000     0.616900000000     0.0253985  
C        C      0.468400000000     0.971100000000     0.613500000000     0.0253985  
C        C      0.535900000000     0.912600000000     0.592200000000     0.0253985  
C        C      0.663800000000     0.955500000000     0.607100000000     0.0253985  
C        C      0.721000000000     0.052700000000     0.645300000000     0.0253985  
C        C      0.647900000000     0.105500000000     0.664900000000     0.0253985  
C        C      0.871200000000     0.351800000000     0.801400000000     0.0253985  
C        C      0.823600000000     0.253500000000     0.770500000000     0.0253985  
C        C      0.702900000000     0.210300000000     0.701900000000     0.0253985  
C        C      0.636700000000     0.270000000000     0.669200000000     0.0253985  
C        C      0.690600000000     0.366500000000     0.702300000000     0.0253985  
C        C      0.740400000000     0.896200000000     0.583400000000     0.0253985  
C        C      0.128600000000     0.541300000000     0.803700000000     0.0253985  
C        C      0.256600000000     0.553400000000     0.836600000000     0.0253985  
C        C      0.330300000000     0.599600000000     0.930400000000     0.0253985  
C        C      0.269500000000     0.630700000000     0.986500000000     0.0253985  
C        C      0.143100000000     0.616900000000     0.949100000000     0.0253985  
C        C      0.468400000000     0.613500000000     0.971100000000     0.0253985  
C        C      0.535900000000     0.592200000000     0.912600000000     0.0253985  
C        C      0.663800000000     0.607100000000     0.955500000000     0.0253985  
C        C      0.721000000000     0.645300000000     0.052700000000     0.0253985  
C        C      0.647900000000     0.664900000000     0.105500000000     0.0253985  
C        C      0.871200000000     0.801400000000     0.351800000000     0.0253985  
C        C      0.823600000000     0.770500000000     0.253500000000     0.0253985  
C        C      0.702900000000     0.701900000000     0.210300000000     0.0253985  
C        C      0.636700000000     0.669200000000     0.270000000000     0.0253985  
C        C      0.690600000000     0.702300000000     0.366500000000     0.0253985  
C        C      0.740400000000     0.583400000000     0.896200000000     0.0253985  
C        C      0.912400000000     0.727400000000     0.727400000000     0.0253985  
C        C      0.866700000000     0.641800000000     0.641800000000     0.0253985  
C        C      0.871400000000     0.458700000000     0.196300000000     0.0253985  
C        C      0.743400000000     0.446600000000     0.163400000000     0.0253985  
C        C      0.669700000000     0.400400000000     0.069600000000     0.0253985  
C        C      0.730500000000     0.369300000000     0.013500000000     0.0253985  
C        C      0.856900000000     0.383100000000     0.050900000000     0.0253985  
C        C      0.531600000000     0.386500000000     0.028900000000     0.0253985  
C        C      0.464100000000     0.407800000000     0.087400000000     0.0253985  
C        C      0.336200000000     0.392900000000     0.044500000000     0.0253985  
C        C      0.279000000000     0.354700000000     0.947300000000     0.0253985  
C        C      0.352100000000     0.335100000000     0.894500000000     0.0253985  
C        C      0.128800000000     0.198600000000     0.648200000000     0.0253985  
C        C      0.176400000000     0.229500000000     0.746500000000     0.0253985  
C        C      0.297100000000     0.298100000000     0.789700000000     0.0253985  
C        C      0.363300000000     0.330800000000     0.730000000000     0.0253985  
C        C      0.309400000000     0.297700000000     0.633500000000     0.0253985  
C        C      0.259600000000     0.416600000000     0.103800000000     0.0253985  
C        C      0.871400000000     0.196300000000     0.458700000000     0.0253985  
C        C      0.743400000000     0.163400000000     0.446600000000     0.0253985  
C        C      0.669700000000     0.069600000000     0.400400000000     0.0253985  
C        C      0.730500000000     0.013500000000     0.369300000000     0.0253985  
C        C      0.856900000000     0.050900000000     0.383100000000     0.0253985  
C        C      0.531600000000     0.028900000000     0.386500000000     0.0253985  
C        C      0.464100000000     0.087400000000     0.407800000000     0.0253985  
C        C      0.336200000000     0.044500000000     0.392900000000     0.0253985  
C        C      0.279000000000     0.947300000000     0.354700000000     0.0253985  
C        C      0.352100000000     0.894500000000     0.335100000000     0.0253985  
C        C      0.128800000000     0.648200000000     0.198600000000     0.0253985  
C        C      0.176400000000     0.746500000000     0.229500000000     0.0253985  
C        C      0.297100000000     0.789700000000     0.298100000000     0.0253985  
C        C      0.363300000000     0.730000000000     0.330800000000     0.0253985  
C        C      0.309400000000     0.633500000000     0.297700000000     0.0253985  
C        C      0.259600000000     0.103800000000     0.416600000000     0.0253985  
C        C      0.087600000000     0.272600000000     0.272600000000     0.0253985  
C        C      0.133300000000     0.358200000000     0.358200000000     0.0253985  
N        N      0.071600000000     0.858780000000     0.572780000000    -0.149747   
N        N      0.523000000000     0.065230000000     0.648370000000    -0.149747   
N        N      0.807400000000     0.408980000000     0.768080000000    -0.149747   
N        N      0.071600000000     0.572780000000     0.858780000000    -0.149747   
N        N      0.523000000000     0.648370000000     0.065230000000    -0.149747   
N        N      0.807400000000     0.768080000000     0.408980000000    -0.149747   
N        N      0.928400000000     0.427220000000     0.141220000000    -0.149747   
N        N      0.477000000000     0.351630000000     0.934770000000    -0.149747   
N        N      0.192600000000     0.231920000000     0.591020000000    -0.149747   
N        N      0.928400000000     0.141220000000     0.427220000000    -0.149747   
N        N      0.477000000000     0.934770000000     0.351630000000    -0.149747   
N        N      0.192600000000     0.591020000000     0.231920000000    -0.149747   
O        O      0.689800000000     0.807800000000     0.559600000000    -0.25084    
O        O      0.852000000000     0.939560000000     0.588280000000    -0.25084    
O        O      0.929300000000     0.808170000000     0.708650000000    -0.25084    
O        O      0.850000000000     0.659880000000     0.559820000000    -0.25084    
O        O      0.689800000000     0.559600000000     0.807800000000    -0.25084    
O        O      0.852000000000     0.588280000000     0.939560000000    -0.25084    
O        O      0.929300000000     0.708650000000     0.808170000000    -0.25084    
O        O      0.850000000000     0.559820000000     0.659880000000    -0.25084    
O        O      0.310200000000     0.440400000000     0.192200000000    -0.25084    
O        O      0.148000000000     0.411720000000     0.060440000000    -0.25084    
O        O      0.070700000000     0.291350000000     0.191830000000    -0.25084    
O        O      0.150000000000     0.440180000000     0.340120000000    -0.25084    
O        O      0.310200000000     0.192200000000     0.440400000000    -0.25084    
O        O      0.148000000000     0.060440000000     0.411720000000    -0.25084    
O        O      0.070700000000     0.191830000000     0.291350000000    -0.25084    
O        O      0.150000000000     0.340120000000     0.440180000000    -0.25084    


