data_XIMPOA_original

_audit_creation_method RASPA-1.0
_audit_creation_date 2022-1-29
_audit_author_name 'Felipe Lopes de Oliveira <felipe.lopes.oliveira@ibm.com>'

_cell_length_a    14.552
_cell_length_b    15.639
_cell_length_c    16.764
_cell_angle_alpha 90
_cell_angle_beta  90
_cell_angle_gamma 90
_cell_volume      3815.13

_symmetry_cell_setting          triclinic
_symmetry_space_group_name_Hall 'P 1'
_symmetry_space_group_name_H-M  'P 1'
_symmetry_Int_Tables_number     1

_symmetry_equiv_pos_as_xyz 'x,y,z'

loop_
_atom_site_label
_atom_site_type_symbol
_atom_site_fract_x
_atom_site_fract_y
_atom_site_fract_z
_atom_site_charge
Zn       Zn     0.656080000000     0.476330000000     0.210360000000     0.421362   
Zn       Zn     0.913230000000     0.974030000000     0.262380000000     0.421362   
Zn       Zn     0.156080000000     0.023670000000     0.789640000000     0.421362   
Zn       Zn     0.413230000000     0.525970000000     0.737620000000     0.421362   
Zn       Zn     0.843920000000     0.523670000000     0.710360000000     0.421362   
Zn       Zn     0.586770000000     0.025970000000     0.762380000000     0.421362   
Zn       Zn     0.343920000000     0.976330000000     0.289640000000     0.421362   
Zn       Zn     0.086770000000     0.474030000000     0.237620000000     0.421362   
H        H      0.734800000000     0.712300000000     0.384300000000     0.0638572  
H        H      0.808100000000     0.710100000000     0.233200000000     0.0638572  
H        H      0.549000000000     0.503700000000     0.965900000000     0.0638572  
H        H      0.563800000000     0.334400000000     0.927600000000     0.0638572  
H        H      0.773200000000     0.316100000000     0.145400000000     0.0638572  
H        H      0.901900000000     0.252000000000     0.217800000000     0.0638572  
H        H      0.801300000000     0.441500000000     0.345300000000     0.0638572  
H        H      0.995400000000     0.299400000000     0.343800000000     0.0638572  
H        H      0.957700000000     0.376700000000     0.393300000000     0.0638572  
H        H      0.902600000000     0.346600000000     0.522200000000     0.0638572  
H        H      0.865100000000     0.249800000000     0.621300000000     0.0638572  
H        H      0.862700000000     0.060300000000     0.461800000000     0.0638572  
H        H      0.897800000000     0.157700000000     0.360600000000     0.0638572  
H        H      0.839400000000     0.023700000000     0.592200000000     0.0638572  
H        H      0.779600000000     0.091900000000     0.637000000000     0.0638572  
H        H      0.993800000000     0.148100000000     0.837200000000     0.0638572  
H        H      0.853300000000     0.170400000000     0.760300000000     0.0638572  
H        H      0.008300000000     0.001400000000     0.647400000000     0.0638572  
H        H      0.985200000000     0.891100000000     0.429900000000     0.0638572  
H        H      0.108900000000     0.952500000000     0.509100000000     0.0638572  
H        H      0.075900000000     0.092100000000     0.314900000000     0.0638572  
H        H      0.236100000000     0.071500000000     0.475900000000     0.0638572  
H        H      0.221600000000     0.125000000000     0.397900000000     0.0638572  
H        H      0.137500000000     0.109600000000     0.595900000000     0.0638572  
H        H      0.094800000000     0.224200000000     0.675000000000     0.0638572  
H        H      0.121600000000     0.381000000000     0.487400000000     0.0638572  
H        H      0.160400000000     0.265600000000     0.407200000000     0.0638572  
H        H      0.028000000000     0.376200000000     0.674200000000     0.0638572  
H        H      0.065300000000     0.439300000000     0.609000000000     0.0638572  
H        H      0.292900000000     0.392200000000     0.834600000000     0.0638572  
H        H      0.142800000000     0.336500000000     0.792800000000     0.0638572  
H        H      0.231800000000     0.497400000000     0.629500000000     0.0638572  
H        H      0.234800000000     0.787700000000     0.615700000000     0.0638572  
H        H      0.308100000000     0.789900000000     0.766800000000     0.0638572  
H        H      0.049000000000     0.996300000000     0.034100000000     0.0638572  
H        H      0.063800000000     0.165600000000     0.072400000000     0.0638572  
H        H      0.273200000000     0.183900000000     0.854600000000     0.0638572  
H        H      0.401900000000     0.248000000000     0.782200000000     0.0638572  
H        H      0.301300000000     0.058500000000     0.654700000000     0.0638572  
H        H      0.495400000000     0.200600000000     0.656200000000     0.0638572  
H        H      0.457700000000     0.123300000000     0.606700000000     0.0638572  
H        H      0.402600000000     0.153400000000     0.477800000000     0.0638572  
H        H      0.365100000000     0.250200000000     0.378700000000     0.0638572  
H        H      0.362700000000     0.439700000000     0.538200000000     0.0638572  
H        H      0.397800000000     0.342300000000     0.639400000000     0.0638572  
H        H      0.339400000000     0.476300000000     0.407800000000     0.0638572  
H        H      0.279600000000     0.408100000000     0.363000000000     0.0638572  
H        H      0.493800000000     0.351900000000     0.162800000000     0.0638572  
H        H      0.353300000000     0.329600000000     0.239700000000     0.0638572  
H        H      0.508300000000     0.498600000000     0.352600000000     0.0638572  
H        H      0.485200000000     0.608900000000     0.570100000000     0.0638572  
H        H      0.608900000000     0.547500000000     0.490900000000     0.0638572  
H        H      0.575900000000     0.407900000000     0.685100000000     0.0638572  
H        H      0.736100000000     0.428500000000     0.524100000000     0.0638572  
H        H      0.721600000000     0.375000000000     0.602100000000     0.0638572  
H        H      0.637500000000     0.390400000000     0.404100000000     0.0638572  
H        H      0.594800000000     0.275800000000     0.325000000000     0.0638572  
H        H      0.621600000000     0.119000000000     0.512600000000     0.0638572  
H        H      0.660400000000     0.234400000000     0.592800000000     0.0638572  
H        H      0.528000000000     0.123800000000     0.325800000000     0.0638572  
H        H      0.565300000000     0.060700000000     0.391000000000     0.0638572  
H        H      0.792900000000     0.107800000000     0.165400000000     0.0638572  
H        H      0.642800000000     0.163500000000     0.207200000000     0.0638572  
H        H      0.731800000000     0.002600000000     0.370500000000     0.0638572  
H        H      0.765200000000     0.287700000000     0.884300000000     0.0638572  
H        H      0.691900000000     0.289900000000     0.733200000000     0.0638572  
H        H      0.951000000000     0.496300000000     0.465900000000     0.0638572  
H        H      0.936200000000     0.665600000000     0.427600000000     0.0638572  
H        H      0.726800000000     0.683900000000     0.645400000000     0.0638572  
H        H      0.598100000000     0.748000000000     0.717800000000     0.0638572  
H        H      0.698700000000     0.558500000000     0.845300000000     0.0638572  
H        H      0.504600000000     0.700600000000     0.843800000000     0.0638572  
H        H      0.542300000000     0.623300000000     0.893300000000     0.0638572  
H        H      0.597400000000     0.653400000000     0.022200000000     0.0638572  
H        H      0.634900000000     0.750200000000     0.121300000000     0.0638572  
H        H      0.637300000000     0.939700000000     0.961800000000     0.0638572  
H        H      0.602200000000     0.842300000000     0.860600000000     0.0638572  
H        H      0.660600000000     0.976300000000     0.092200000000     0.0638572  
H        H      0.720400000000     0.908100000000     0.137000000000     0.0638572  
H        H      0.506200000000     0.851900000000     0.337200000000     0.0638572  
H        H      0.646700000000     0.829600000000     0.260300000000     0.0638572  
H        H      0.491700000000     0.998600000000     0.147400000000     0.0638572  
H        H      0.514800000000     0.108900000000     0.929900000000     0.0638572  
H        H      0.391100000000     0.047500000000     0.009100000000     0.0638572  
H        H      0.424100000000     0.907900000000     0.814900000000     0.0638572  
H        H      0.263900000000     0.928500000000     0.975900000000     0.0638572  
H        H      0.278400000000     0.875000000000     0.897900000000     0.0638572  
H        H      0.362500000000     0.890400000000     0.095900000000     0.0638572  
H        H      0.405200000000     0.775800000000     0.175000000000     0.0638572  
H        H      0.378400000000     0.619000000000     0.987400000000     0.0638572  
H        H      0.339600000000     0.734400000000     0.907200000000     0.0638572  
H        H      0.472000000000     0.623800000000     0.174200000000     0.0638572  
H        H      0.434700000000     0.560700000000     0.109000000000     0.0638572  
H        H      0.207100000000     0.607800000000     0.334600000000     0.0638572  
H        H      0.357200000000     0.663500000000     0.292800000000     0.0638572  
H        H      0.268200000000     0.502600000000     0.129500000000     0.0638572  
H        H      0.265200000000     0.212300000000     0.115700000000     0.0638572  
H        H      0.191900000000     0.210100000000     0.266800000000     0.0638572  
H        H      0.451000000000     0.003700000000     0.534100000000     0.0638572  
H        H      0.436200000000     0.834400000000     0.572400000000     0.0638572  
H        H      0.226800000000     0.816100000000     0.354600000000     0.0638572  
H        H      0.098100000000     0.752000000000     0.282200000000     0.0638572  
H        H      0.198700000000     0.941500000000     0.154700000000     0.0638572  
H        H      0.004600000000     0.799400000000     0.156200000000     0.0638572  
H        H      0.042300000000     0.876700000000     0.106700000000     0.0638572  
H        H      0.097400000000     0.846600000000     0.977800000000     0.0638572  
H        H      0.134900000000     0.749800000000     0.878700000000     0.0638572  
H        H      0.137300000000     0.560300000000     0.038200000000     0.0638572  
H        H      0.102200000000     0.657700000000     0.139400000000     0.0638572  
H        H      0.160600000000     0.523700000000     0.907800000000     0.0638572  
H        H      0.220400000000     0.591900000000     0.863000000000     0.0638572  
H        H      0.006200000000     0.648100000000     0.662800000000     0.0638572  
H        H      0.146700000000     0.670400000000     0.739700000000     0.0638572  
H        H      0.991700000000     0.501400000000     0.852600000000     0.0638572  
H        H      0.014800000000     0.391100000000     0.070100000000     0.0638572  
H        H      0.891100000000     0.452500000000     0.990900000000     0.0638572  
H        H      0.924100000000     0.592100000000     0.185100000000     0.0638572  
H        H      0.763900000000     0.571500000000     0.024100000000     0.0638572  
H        H      0.778400000000     0.625000000000     0.102100000000     0.0638572  
H        H      0.862500000000     0.609600000000     0.904100000000     0.0638572  
H        H      0.905200000000     0.724200000000     0.825000000000     0.0638572  
H        H      0.878400000000     0.881000000000     0.012600000000     0.0638572  
H        H      0.839600000000     0.765600000000     0.092800000000     0.0638572  
H        H      0.972000000000     0.876200000000     0.825800000000     0.0638572  
H        H      0.934700000000     0.939300000000     0.891000000000     0.0638572  
H        H      0.707100000000     0.892200000000     0.665400000000     0.0638572  
H        H      0.857200000000     0.836500000000     0.707200000000     0.0638572  
H        H      0.768200000000     0.997400000000     0.870500000000     0.0638572  
C        C      0.700600000000     0.608600000000     0.310000000000     0.0121048  
C        C      0.744400000000     0.690900000000     0.333200000000     0.0121048  
C        C      0.796800000000     0.734500000000     0.282900000000     0.0121048  
C        C      0.838900000000     0.819100000000     0.299500000000     0.0121048  
C        C      0.614200000000     0.427100000000     0.052400000000     0.0121048  
C        C      0.566100000000     0.447300000000     0.975000000000     0.0121048  
C        C      0.546800000000     0.391100000000     0.919800000000     0.0121048  
C        C      0.498600000000     0.415200000000     0.845300000000     0.0121048  
C        C      0.794900000000     0.333500000000     0.195000000000     0.0121048  
C        C      0.865700000000     0.297400000000     0.234900000000     0.0121048  
C        C      0.809600000000     0.402000000000     0.304400000000     0.0121048  
C        C      0.940600000000     0.323200000000     0.368100000000     0.0121048  
C        C      0.906600000000     0.262000000000     0.431800000000     0.0121048  
C        C      0.895300000000     0.289100000000     0.509600000000     0.0121048  
C        C      0.873100000000     0.230800000000     0.569200000000     0.0121048  
C        C      0.862800000000     0.145500000000     0.552000000000     0.0121048  
C        C      0.871300000000     0.117800000000     0.474000000000     0.0121048  
C        C      0.892800000000     0.176300000000     0.413100000000     0.0121048  
C        C      0.840400000000     0.080300000000     0.616000000000     0.0121048  
C        C      0.978900000000     0.121300000000     0.789400000000     0.0121048  
C        C      0.901200000000     0.133600000000     0.747300000000     0.0121048  
C        C      0.987300000000     0.040200000000     0.685200000000     0.0121048  
C        C      0.019000000000     0.939600000000     0.416800000000     0.0121048  
C        C      0.087200000000     0.972800000000     0.460500000000     0.0121048  
C        C      0.068300000000     0.049600000000     0.353200000000     0.0121048  
C        C      0.190900000000     0.102700000000     0.444900000000     0.0121048  
C        C      0.156400000000     0.176300000000     0.493700000000     0.0121048  
C        C      0.134700000000     0.164200000000     0.574000000000     0.0121048  
C        C      0.109200000000     0.232800000000     0.621600000000     0.0121048  
C        C      0.105100000000     0.315100000000     0.588700000000     0.0121048  
C        C      0.124600000000     0.326500000000     0.509400000000     0.0121048  
C        C      0.149100000000     0.257200000000     0.461300000000     0.0121048  
C        C      0.081000000000     0.390400000000     0.641800000000     0.0121048  
C        C      0.262000000000     0.406600000000     0.788000000000     0.0121048  
C        C      0.179000000000     0.375500000000     0.765100000000     0.0121048  
C        C      0.229000000000     0.464500000000     0.675600000000     0.0121048  
C        C      0.200600000000     0.891400000000     0.690000000000     0.0121048  
C        C      0.244400000000     0.809100000000     0.666800000000     0.0121048  
C        C      0.296800000000     0.765500000000     0.717100000000     0.0121048  
C        C      0.338900000000     0.680900000000     0.700500000000     0.0121048  
C        C      0.114200000000     0.072900000000     0.947600000000     0.0121048  
C        C      0.066100000000     0.052700000000     0.025000000000     0.0121048  
C        C      0.046800000000     0.108900000000     0.080200000000     0.0121048  
C        C      0.998600000000     0.084800000000     0.154700000000     0.0121048  
C        C      0.294900000000     0.166500000000     0.805000000000     0.0121048  
C        C      0.365700000000     0.202600000000     0.765100000000     0.0121048  
C        C      0.309600000000     0.098000000000     0.695600000000     0.0121048  
C        C      0.440600000000     0.176800000000     0.631900000000     0.0121048  
C        C      0.406600000000     0.238000000000     0.568200000000     0.0121048  
C        C      0.395300000000     0.210900000000     0.490400000000     0.0121048  
C        C      0.373100000000     0.269200000000     0.430800000000     0.0121048  
C        C      0.362800000000     0.354500000000     0.448000000000     0.0121048  
C        C      0.371300000000     0.382200000000     0.526000000000     0.0121048  
C        C      0.392800000000     0.323700000000     0.586900000000     0.0121048  
C        C      0.340400000000     0.419700000000     0.384000000000     0.0121048  
C        C      0.478900000000     0.378700000000     0.210600000000     0.0121048  
C        C      0.401200000000     0.366400000000     0.252700000000     0.0121048  
C        C      0.487300000000     0.459800000000     0.314800000000     0.0121048  
C        C      0.519000000000     0.560400000000     0.583200000000     0.0121048  
C        C      0.587200000000     0.527200000000     0.539500000000     0.0121048  
C        C      0.568300000000     0.450400000000     0.646800000000     0.0121048  
C        C      0.690900000000     0.397300000000     0.555100000000     0.0121048  
C        C      0.656400000000     0.323700000000     0.506300000000     0.0121048  
C        C      0.634700000000     0.335800000000     0.426000000000     0.0121048  
C        C      0.609200000000     0.267200000000     0.378400000000     0.0121048  
C        C      0.605100000000     0.184900000000     0.411300000000     0.0121048  
C        C      0.624600000000     0.173500000000     0.490600000000     0.0121048  
C        C      0.649100000000     0.242800000000     0.538700000000     0.0121048  
C        C      0.581000000000     0.109600000000     0.358200000000     0.0121048  
C        C      0.762000000000     0.093400000000     0.212000000000     0.0121048  
C        C      0.679000000000     0.124500000000     0.234900000000     0.0121048  
C        C      0.729000000000     0.035500000000     0.324400000000     0.0121048  
C        C      0.799400000000     0.391400000000     0.810000000000     0.0121048  
C        C      0.755600000000     0.309100000000     0.833200000000     0.0121048  
C        C      0.703200000000     0.265500000000     0.782900000000     0.0121048  
C        C      0.661100000000     0.180900000000     0.799500000000     0.0121048  
C        C      0.885800000000     0.572900000000     0.552400000000     0.0121048  
C        C      0.933900000000     0.552700000000     0.475000000000     0.0121048  
C        C      0.953200000000     0.608900000000     0.419800000000     0.0121048  
C        C      0.001400000000     0.584800000000     0.345300000000     0.0121048  
C        C      0.705100000000     0.666500000000     0.695000000000     0.0121048  
C        C      0.634300000000     0.702600000000     0.734900000000     0.0121048  
C        C      0.690400000000     0.598000000000     0.804400000000     0.0121048  
C        C      0.559400000000     0.676800000000     0.868100000000     0.0121048  
C        C      0.593400000000     0.738000000000     0.931800000000     0.0121048  
C        C      0.604700000000     0.710900000000     0.009600000000     0.0121048  
C        C      0.626900000000     0.769200000000     0.069200000000     0.0121048  
C        C      0.637200000000     0.854500000000     0.052000000000     0.0121048  
C        C      0.628700000000     0.882200000000     0.974000000000     0.0121048  
C        C      0.607200000000     0.823700000000     0.913100000000     0.0121048  
C        C      0.659600000000     0.919700000000     0.116000000000     0.0121048  
C        C      0.521100000000     0.878700000000     0.289400000000     0.0121048  
C        C      0.598800000000     0.866400000000     0.247300000000     0.0121048  
C        C      0.512700000000     0.959800000000     0.185200000000     0.0121048  
C        C      0.481000000000     0.060400000000     0.916800000000     0.0121048  
C        C      0.412800000000     0.027200000000     0.960500000000     0.0121048  
C        C      0.431700000000     0.950400000000     0.853200000000     0.0121048  
C        C      0.309100000000     0.897300000000     0.944900000000     0.0121048  
C        C      0.343600000000     0.823700000000     0.993700000000     0.0121048  
C        C      0.365300000000     0.835800000000     0.074000000000     0.0121048  
C        C      0.390800000000     0.767200000000     0.121600000000     0.0121048  
C        C      0.394900000000     0.684900000000     0.088700000000     0.0121048  
C        C      0.375400000000     0.673500000000     0.009400000000     0.0121048  
C        C      0.350900000000     0.742800000000     0.961300000000     0.0121048  
C        C      0.419000000000     0.609600000000     0.141800000000     0.0121048  
C        C      0.238000000000     0.593400000000     0.288000000000     0.0121048  
C        C      0.321000000000     0.624500000000     0.265100000000     0.0121048  
C        C      0.271000000000     0.535500000000     0.175600000000     0.0121048  
C        C      0.299400000000     0.108600000000     0.190000000000     0.0121048  
C        C      0.255600000000     0.190900000000     0.166800000000     0.0121048  
C        C      0.203200000000     0.234500000000     0.217100000000     0.0121048  
C        C      0.161100000000     0.319100000000     0.200500000000     0.0121048  
C        C      0.385800000000     0.927100000000     0.447600000000     0.0121048  
C        C      0.433900000000     0.947300000000     0.525000000000     0.0121048  
C        C      0.453200000000     0.891100000000     0.580200000000     0.0121048  
C        C      0.501400000000     0.915200000000     0.654700000000     0.0121048  
C        C      0.205100000000     0.833500000000     0.305000000000     0.0121048  
C        C      0.134300000000     0.797400000000     0.265100000000     0.0121048  
C        C      0.190400000000     0.902000000000     0.195600000000     0.0121048  
C        C      0.059400000000     0.823200000000     0.131900000000     0.0121048  
C        C      0.093400000000     0.762000000000     0.068200000000     0.0121048  
C        C      0.104700000000     0.789100000000     0.990400000000     0.0121048  
C        C      0.126900000000     0.730800000000     0.930800000000     0.0121048  
C        C      0.137200000000     0.645500000000     0.948000000000     0.0121048  
C        C      0.128700000000     0.617800000000     0.026000000000     0.0121048  
C        C      0.107200000000     0.676300000000     0.086900000000     0.0121048  
C        C      0.159600000000     0.580300000000     0.884000000000     0.0121048  
C        C      0.021100000000     0.621300000000     0.710600000000     0.0121048  
C        C      0.098800000000     0.633600000000     0.752700000000     0.0121048  
C        C      0.012700000000     0.540200000000     0.814800000000     0.0121048  
C        C      0.981000000000     0.439600000000     0.083200000000     0.0121048  
C        C      0.912800000000     0.472800000000     0.039500000000     0.0121048  
C        C      0.931700000000     0.549600000000     0.146800000000     0.0121048  
C        C      0.809100000000     0.602700000000     0.055100000000     0.0121048  
C        C      0.843600000000     0.676300000000     0.006300000000     0.0121048  
C        C      0.865300000000     0.664200000000     0.926000000000     0.0121048  
C        C      0.890800000000     0.732800000000     0.878400000000     0.0121048  
C        C      0.894900000000     0.815100000000     0.911300000000     0.0121048  
C        C      0.875400000000     0.826500000000     0.990600000000     0.0121048  
C        C      0.850900000000     0.757200000000     0.038700000000     0.0121048  
C        C      0.919000000000     0.890400000000     0.858200000000     0.0121048  
C        C      0.738000000000     0.906600000000     0.712000000000     0.0121048  
C        C      0.821000000000     0.875500000000     0.734900000000     0.0121048  
C        C      0.771000000000     0.964500000000     0.824400000000     0.0121048  
N        N      0.760000000000     0.400100000000     0.239500000000    -0.130972   
N        N      0.873300000000     0.341000000000     0.305200000000    -0.130972   
N        N      0.033100000000     0.062300000000     0.749700000000    -0.130972   
N        N      0.906300000000     0.081000000000     0.681200000000    -0.130972   
N        N      0.006600000000     0.988500000000     0.349100000000    -0.130972   
N        N      0.118800000000     0.042900000000     0.419300000000    -0.130972   
N        N      0.293100000000     0.463200000000     0.730630000000    -0.130972   
N        N      0.158900000000     0.412400000000     0.693900000000    -0.130972   
N        N      0.260000000000     0.099900000000     0.760500000000    -0.130972   
N        N      0.373300000000     0.159000000000     0.694800000000    -0.130972   
N        N      0.533100000000     0.437700000000     0.250300000000    -0.130972   
N        N      0.406300000000     0.419000000000     0.318800000000    -0.130972   
N        N      0.506600000000     0.511500000000     0.650900000000    -0.130972   
N        N      0.618800000000     0.457100000000     0.580700000000    -0.130972   
N        N      0.793100000000     0.036800000000     0.269370000000    -0.130972   
N        N      0.658900000000     0.087600000000     0.306100000000    -0.130972   
N        N      0.740000000000     0.599900000000     0.739500000000    -0.130972   
N        N      0.626700000000     0.659000000000     0.805200000000    -0.130972   
N        N      0.466900000000     0.937700000000     0.249700000000    -0.130972   
N        N      0.593700000000     0.919000000000     0.181200000000    -0.130972   
N        N      0.493400000000     0.011500000000     0.849100000000    -0.130972   
N        N      0.381200000000     0.957100000000     0.919300000000    -0.130972   
N        N      0.206900000000     0.536800000000     0.230630000000    -0.130972   
N        N      0.341100000000     0.587600000000     0.193900000000    -0.130972   
N        N      0.240000000000     0.900100000000     0.260500000000    -0.130972   
N        N      0.126700000000     0.841000000000     0.194800000000    -0.130972   
N        N      0.966900000000     0.562300000000     0.750300000000    -0.130972   
N        N      0.093700000000     0.581000000000     0.818800000000    -0.130972   
N        N      0.993400000000     0.488500000000     0.150900000000    -0.130972   
N        N      0.881200000000     0.542900000000     0.080700000000    -0.130972   
N        N      0.706900000000     0.963200000000     0.769370000000    -0.130972   
N        N      0.841100000000     0.912400000000     0.806100000000    -0.130972   
O        O      0.696400000000     0.591670000000     0.236630000000    -0.28427    
O        O      0.675000000000     0.558400000000     0.362300000000    -0.28427    
O        O      0.877800000000     0.854590000000     0.239500000000    -0.28427    
O        O      0.832100000000     0.854180000000     0.366230000000    -0.28427    
O        O      0.627100000000     0.492400000000     0.097220000000    -0.28427    
O        O      0.634700000000     0.352800000000     0.070600000000    -0.28427    
O        O      0.465300000000     0.491900000000     0.841720000000    -0.28427    
O        O      0.493700000000     0.362090000000     0.791300000000    -0.28427    
O        O      0.196400000000     0.908330000000     0.763370000000    -0.28427    
O        O      0.175000000000     0.941600000000     0.637700000000    -0.28427    
O        O      0.377800000000     0.645410000000     0.760500000000    -0.28427    
O        O      0.332100000000     0.645820000000     0.633770000000    -0.28427    
O        O      0.127100000000     0.007600000000     0.902780000000    -0.28427    
O        O      0.134700000000     0.147200000000     0.929400000000    -0.28427    
O        O      0.965300000000     0.008100000000     0.158280000000    -0.28427    
O        O      0.993700000000     0.137910000000     0.208700000000    -0.28427    
O        O      0.803600000000     0.408330000000     0.736630000000    -0.28427    
O        O      0.825000000000     0.441600000000     0.862300000000    -0.28427    
O        O      0.622200000000     0.145410000000     0.739500000000    -0.28427    
O        O      0.667900000000     0.145820000000     0.866230000000    -0.28427    
O        O      0.872900000000     0.507600000000     0.597220000000    -0.28427    
O        O      0.865300000000     0.647200000000     0.570600000000    -0.28427    
O        O      0.034700000000     0.508100000000     0.341720000000    -0.28427    
O        O      0.006300000000     0.637910000000     0.291300000000    -0.28427    
O        O      0.303600000000     0.091670000000     0.263370000000    -0.28427    
O        O      0.325000000000     0.058400000000     0.137700000000    -0.28427    
O        O      0.122200000000     0.354590000000     0.260500000000    -0.28427    
O        O      0.167900000000     0.354180000000     0.133770000000    -0.28427    
O        O      0.372900000000     0.992400000000     0.402780000000    -0.28427    
O        O      0.365300000000     0.852800000000     0.429400000000    -0.28427    
O        O      0.534700000000     0.991900000000     0.658280000000    -0.28427    
O        O      0.506300000000     0.862090000000     0.708700000000    -0.28427    


