data_XINFUW_original

_audit_creation_method RASPA-1.0
_audit_creation_date 2022-1-30
_audit_author_name 'Felipe Lopes de Oliveira <felipe.lopes.oliveira@ibm.com>'

_cell_length_a    12.6977
_cell_length_b    15.1033
_cell_length_c    18.903
_cell_angle_alpha 90
_cell_angle_beta  90
_cell_angle_gamma 90
_cell_volume      3625.16

_symmetry_cell_setting          triclinic
_symmetry_space_group_name_Hall 'P 1'
_symmetry_space_group_name_H-M  'P 1'
_symmetry_Int_Tables_number     1

_symmetry_equiv_pos_as_xyz 'x,y,z'

loop_
_atom_site_label
_atom_site_type_symbol
_atom_site_fract_x
_atom_site_fract_y
_atom_site_fract_z
_atom_site_charge
Zn       Zn     0.198790000000     0.048280000000     0.225750000000     0.44645    
Zn       Zn     0.127670000000     0.191230000000     0.381990000000     0.44645    
Zn       Zn     0.301210000000     0.951720000000     0.725750000000     0.44645    
Zn       Zn     0.372330000000     0.808770000000     0.881990000000     0.44645    
Zn       Zn     0.801210000000     0.548280000000     0.274250000000     0.44645    
Zn       Zn     0.872330000000     0.691230000000     0.118010000000     0.44645    
Zn       Zn     0.698790000000     0.451720000000     0.774250000000     0.44645    
Zn       Zn     0.627670000000     0.308770000000     0.618010000000     0.44645    
H        H      0.466000000000     0.976500000000     0.319000000000     0.0550023  
H        H      0.642200000000     0.963300000000     0.351400000000     0.0550023  
H        H      0.710900000000     0.052100000000     0.439500000000     0.0550023  
H        H      0.431700000000     0.174300000000     0.459800000000     0.0550023  
H        H      0.219400000000     0.263900000000     0.105600000000     0.0550023  
H        H      0.191300000000     0.372600000000     0.021400000000     0.0550023  
H        H      0.090200000000     0.495700000000     0.049300000000     0.0550023  
H        H      0.051200000000     0.404000000000     0.247000000000     0.0550023  
H        H      0.034000000000     0.023500000000     0.819000000000     0.0550023  
H        H      0.857800000000     0.036700000000     0.851400000000     0.0550023  
H        H      0.789100000000     0.947900000000     0.939500000000     0.0550023  
H        H      0.068300000000     0.825700000000     0.959800000000     0.0550023  
H        H      0.280600000000     0.736100000000     0.605600000000     0.0550023  
H        H      0.308700000000     0.627400000000     0.521400000000     0.0550023  
H        H      0.409800000000     0.504300000000     0.549300000000     0.0550023  
H        H      0.448800000000     0.596000000000     0.747000000000     0.0550023  
H        H      0.534000000000     0.476500000000     0.181000000000     0.0550023  
H        H      0.357800000000     0.463300000000     0.148600000000     0.0550023  
H        H      0.289100000000     0.552100000000     0.060500000000     0.0550023  
H        H      0.568300000000     0.674300000000     0.040200000000     0.0550023  
H        H      0.780600000000     0.763900000000     0.394400000000     0.0550023  
H        H      0.808700000000     0.872600000000     0.478600000000     0.0550023  
H        H      0.909800000000     0.995700000000     0.450700000000     0.0550023  
H        H      0.948800000000     0.904000000000     0.253000000000     0.0550023  
H        H      0.966000000000     0.523500000000     0.681000000000     0.0550023  
H        H      0.142200000000     0.536700000000     0.648600000000     0.0550023  
H        H      0.210900000000     0.447900000000     0.560500000000     0.0550023  
H        H      0.931700000000     0.325700000000     0.540200000000     0.0550023  
H        H      0.719400000000     0.236100000000     0.894400000000     0.0550023  
H        H      0.691300000000     0.127400000000     0.978600000000     0.0550023  
H        H      0.590200000000     0.004300000000     0.950700000000     0.0550023  
H        H      0.551200000000     0.096000000000     0.753000000000     0.0550023  
C        C      0.317200000000     0.087550000000     0.365650000000     0.0586978  
C        C      0.431200000000     0.076450000000     0.386430000000     0.0586978  
C        C      0.494000000000     0.013150000000     0.353760000000     0.0586978  
C        C      0.599500000000     0.004900000000     0.373540000000     0.0586978  
C        C      0.640900000000     0.058600000000     0.425980000000     0.0586978  
C        C      0.578500000000     0.122190000000     0.458590000000     0.0586978  
C        C      0.473600000000     0.131430000000     0.438490000000     0.0586978  
C        C      0.624500000000     0.178480000000     0.517170000000     0.0586978  
C        C      0.155700000000     0.251480000000     0.239370000000     0.0586978  
C        C      0.179900000000     0.313790000000     0.117010000000     0.0586978  
C        C      0.162700000000     0.378550000000     0.066410000000     0.0586978  
C        C      0.102400000000     0.452420000000     0.083290000000     0.0586978  
C        C      0.060320000000     0.462030000000     0.150740000000     0.0586978  
C        C      0.078700000000     0.397450000000     0.201740000000     0.0586978  
C        C      0.138500000000     0.322790000000     0.184880000000     0.0586978  
C        C      0.988460000000     0.539260000000     0.167170000000     0.0586978  
C        C      0.182800000000     0.912450000000     0.865650000000     0.0586978  
C        C      0.068800000000     0.923550000000     0.886430000000     0.0586978  
C        C      0.006000000000     0.986850000000     0.853760000000     0.0586978  
C        C      0.900500000000     0.995100000000     0.873540000000     0.0586978  
C        C      0.859100000000     0.941400000000     0.925980000000     0.0586978  
C        C      0.921500000000     0.877810000000     0.958590000000     0.0586978  
C        C      0.026400000000     0.868570000000     0.938490000000     0.0586978  
C        C      0.875500000000     0.821520000000     0.017170000000     0.0586978  
C        C      0.344300000000     0.748520000000     0.739370000000     0.0586978  
C        C      0.320100000000     0.686210000000     0.617010000000     0.0586978  
C        C      0.337300000000     0.621450000000     0.566410000000     0.0586978  
C        C      0.397600000000     0.547580000000     0.583290000000     0.0586978  
C        C      0.439680000000     0.537970000000     0.650740000000     0.0586978  
C        C      0.421300000000     0.602550000000     0.701740000000     0.0586978  
C        C      0.361500000000     0.677210000000     0.684880000000     0.0586978  
C        C      0.511540000000     0.460740000000     0.667170000000     0.0586978  
C        C      0.682800000000     0.587550000000     0.134350000000     0.0586978  
C        C      0.568800000000     0.576450000000     0.113570000000     0.0586978  
C        C      0.506000000000     0.513150000000     0.146240000000     0.0586978  
C        C      0.400500000000     0.504900000000     0.126460000000     0.0586978  
C        C      0.359100000000     0.558600000000     0.074020000000     0.0586978  
C        C      0.421500000000     0.622190000000     0.041410000000     0.0586978  
C        C      0.526400000000     0.631430000000     0.061510000000     0.0586978  
C        C      0.375500000000     0.678480000000     0.982830000000     0.0586978  
C        C      0.844300000000     0.751480000000     0.260630000000     0.0586978  
C        C      0.820100000000     0.813790000000     0.382990000000     0.0586978  
C        C      0.837300000000     0.878550000000     0.433590000000     0.0586978  
C        C      0.897600000000     0.952420000000     0.416710000000     0.0586978  
C        C      0.939680000000     0.962030000000     0.349260000000     0.0586978  
C        C      0.921300000000     0.897450000000     0.298260000000     0.0586978  
C        C      0.861500000000     0.822790000000     0.315120000000     0.0586978  
C        C      0.011540000000     0.039260000000     0.332830000000     0.0586978  
C        C      0.817200000000     0.412450000000     0.634350000000     0.0586978  
C        C      0.931200000000     0.423550000000     0.613570000000     0.0586978  
C        C      0.994000000000     0.486850000000     0.646240000000     0.0586978  
C        C      0.099500000000     0.495100000000     0.626460000000     0.0586978  
C        C      0.140900000000     0.441400000000     0.574020000000     0.0586978  
C        C      0.078500000000     0.377810000000     0.541410000000     0.0586978  
C        C      0.973600000000     0.368570000000     0.561510000000     0.0586978  
C        C      0.124500000000     0.321520000000     0.482830000000     0.0586978  
C        C      0.655700000000     0.248520000000     0.760630000000     0.0586978  
C        C      0.679900000000     0.186210000000     0.882990000000     0.0586978  
C        C      0.662700000000     0.121450000000     0.933590000000     0.0586978  
C        C      0.602400000000     0.047580000000     0.916710000000     0.0586978  
C        C      0.560320000000     0.037970000000     0.849260000000     0.0586978  
C        C      0.578700000000     0.102550000000     0.798260000000     0.0586978  
C        C      0.638500000000     0.177210000000     0.815120000000     0.0586978  
C        C      0.488460000000     0.960740000000     0.832830000000     0.0586978  
O        O      0.278350000000     0.035620000000     0.320940000000    -0.284011   
O        O      0.269710000000     0.149220000000     0.397020000000    -0.284011   
O        O      0.566020000000     0.241180000000     0.540130000000    -0.284011   
O        O      0.712800000000     0.162170000000     0.539760000000    -0.284011   
O        O      0.212240000000     0.186590000000     0.223310000000    -0.284011   
O        O      0.110160000000     0.263900000000     0.298020000000    -0.284011   
O        O      0.953540000000     0.547770000000     0.228130000000    -0.284011   
O        O      0.968970000000     0.589540000000     0.115290000000    -0.284011   
O        O      0.221650000000     0.964380000000     0.820940000000    -0.284011   
O        O      0.230290000000     0.850780000000     0.897020000000    -0.284011   
O        O      0.933980000000     0.758820000000     0.040130000000    -0.284011   
O        O      0.787200000000     0.837830000000     0.039760000000    -0.284011   
O        O      0.287760000000     0.813410000000     0.723310000000    -0.284011   
O        O      0.389840000000     0.736100000000     0.798020000000    -0.284011   
O        O      0.546460000000     0.452230000000     0.728130000000    -0.284011   
O        O      0.531030000000     0.410460000000     0.615290000000    -0.284011   
O        O      0.721650000000     0.535620000000     0.179060000000    -0.284011   
O        O      0.730290000000     0.649220000000     0.102980000000    -0.284011   
O        O      0.433980000000     0.741180000000     0.959870000000    -0.284011   
O        O      0.287200000000     0.662170000000     0.960240000000    -0.284011   
O        O      0.787760000000     0.686590000000     0.276690000000    -0.284011   
O        O      0.889840000000     0.763900000000     0.201980000000    -0.284011   
O        O      0.046460000000     0.047770000000     0.271870000000    -0.284011   
O        O      0.031030000000     0.089540000000     0.384710000000    -0.284011   
O        O      0.778350000000     0.464380000000     0.679060000000    -0.284011   
O        O      0.769710000000     0.350780000000     0.602980000000    -0.284011   
O        O      0.066020000000     0.258820000000     0.459870000000    -0.284011   
O        O      0.212800000000     0.337830000000     0.460240000000    -0.284011   
O        O      0.712240000000     0.313410000000     0.776690000000    -0.284011   
O        O      0.610160000000     0.236100000000     0.701980000000    -0.284011   
O        O      0.453540000000     0.952230000000     0.771870000000    -0.284011   
O        O      0.468970000000     0.910460000000     0.884710000000    -0.284011   


