data_XISVUR_original

_audit_creation_method RASPA-1.0
_audit_creation_date 2022-1-31
_audit_author_name 'Felipe Lopes de Oliveira <felipe.lopes.oliveira@ibm.com>'

_cell_length_a    14.4669
_cell_length_b    17.046
_cell_length_c    18.02
_cell_angle_alpha 90
_cell_angle_beta  90
_cell_angle_gamma 90
_cell_volume      4443.78

_symmetry_cell_setting          triclinic
_symmetry_space_group_name_Hall 'P 1'
_symmetry_space_group_name_H-M  'P 1'
_symmetry_Int_Tables_number     1

_symmetry_equiv_pos_as_xyz 'x,y,z'

loop_
_atom_site_label
_atom_site_type_symbol
_atom_site_fract_x
_atom_site_fract_y
_atom_site_fract_z
_atom_site_charge
Zn       Zn     0.846440000000     0.944730000000     0.601660000000     0.448589   
Zn       Zn     0.053990000000     0.936390000000     0.546670000000     0.448589   
Zn       Zn     0.153560000000     0.444730000000     0.898340000000     0.448589   
Zn       Zn     0.946010000000     0.436390000000     0.953330000000     0.448589   
Zn       Zn     0.153560000000     0.055270000000     0.398340000000     0.448589   
Zn       Zn     0.946010000000     0.063610000000     0.453330000000     0.448589   
Zn       Zn     0.846440000000     0.555270000000     0.101660000000     0.448589   
Zn       Zn     0.053990000000     0.563610000000     0.046670000000     0.448589   
Zn       Zn     0.653560000000     0.055270000000     0.101660000000     0.448589   
Zn       Zn     0.446010000000     0.063610000000     0.046670000000     0.448589   
Zn       Zn     0.346440000000     0.555270000000     0.398340000000     0.448589   
Zn       Zn     0.553990000000     0.563610000000     0.453330000000     0.448589   
Zn       Zn     0.346440000000     0.944730000000     0.898340000000     0.448589   
Zn       Zn     0.553990000000     0.936390000000     0.953330000000     0.448589   
Zn       Zn     0.653560000000     0.444730000000     0.601660000000     0.448589   
Zn       Zn     0.446010000000     0.436390000000     0.546670000000     0.448589   
H        H      0.133400000000     0.121200000000     0.693900000000     0.0624763  
H        H      0.163800000000     0.230400000000     0.766000000000     0.0624763  
H        H      0.909100000000     0.220200000000     0.847100000000     0.0624763  
H        H      0.877400000000     0.111100000000     0.779200000000     0.0624763  
H        H      0.578800000000     0.064600000000     0.592300000000     0.0624763  
H        H      0.563100000000     0.892000000000     0.444300000000     0.0624763  
H        H      0.866600000000     0.621200000000     0.806100000000     0.0624763  
H        H      0.836200000000     0.730400000000     0.734000000000     0.0624763  
H        H      0.090900000000     0.720200000000     0.652900000000     0.0624763  
H        H      0.122600000000     0.611100000000     0.720800000000     0.0624763  
H        H      0.421200000000     0.564600000000     0.907700000000     0.0624763  
H        H      0.436900000000     0.392000000000     0.055700000000     0.0624763  
H        H      0.866600000000     0.878800000000     0.306100000000     0.0624763  
H        H      0.836200000000     0.769600000000     0.234000000000     0.0624763  
H        H      0.090900000000     0.779800000000     0.152900000000     0.0624763  
H        H      0.122600000000     0.888900000000     0.220800000000     0.0624763  
H        H      0.421200000000     0.935400000000     0.407700000000     0.0624763  
H        H      0.436900000000     0.108000000000     0.555700000000     0.0624763  
H        H      0.133400000000     0.378800000000     0.193900000000     0.0624763  
H        H      0.163800000000     0.269600000000     0.266000000000     0.0624763  
H        H      0.909100000000     0.279800000000     0.347100000000     0.0624763  
H        H      0.877400000000     0.388900000000     0.279200000000     0.0624763  
H        H      0.578800000000     0.435400000000     0.092300000000     0.0624763  
H        H      0.563100000000     0.608000000000     0.944300000000     0.0624763  
H        H      0.366600000000     0.878800000000     0.193900000000     0.0624763  
H        H      0.336200000000     0.769600000000     0.266000000000     0.0624763  
H        H      0.590900000000     0.779800000000     0.347100000000     0.0624763  
H        H      0.622600000000     0.888900000000     0.279200000000     0.0624763  
H        H      0.921200000000     0.935400000000     0.092300000000     0.0624763  
H        H      0.936900000000     0.108000000000     0.944300000000     0.0624763  
H        H      0.633400000000     0.378800000000     0.306100000000     0.0624763  
H        H      0.663800000000     0.269600000000     0.234000000000     0.0624763  
H        H      0.409100000000     0.279800000000     0.152900000000     0.0624763  
H        H      0.377400000000     0.388900000000     0.220800000000     0.0624763  
H        H      0.078800000000     0.435400000000     0.407700000000     0.0624763  
H        H      0.063100000000     0.608000000000     0.555700000000     0.0624763  
H        H      0.633400000000     0.121200000000     0.806100000000     0.0624763  
H        H      0.663800000000     0.230400000000     0.734000000000     0.0624763  
H        H      0.409100000000     0.220200000000     0.652900000000     0.0624763  
H        H      0.377400000000     0.111100000000     0.720800000000     0.0624763  
H        H      0.078800000000     0.064600000000     0.907700000000     0.0624763  
H        H      0.063100000000     0.892000000000     0.055700000000     0.0624763  
H        H      0.366600000000     0.621200000000     0.693900000000     0.0624763  
H        H      0.336200000000     0.730400000000     0.766000000000     0.0624763  
H        H      0.590900000000     0.720200000000     0.847100000000     0.0624763  
H        H      0.622600000000     0.611100000000     0.779200000000     0.0624763  
H        H      0.921200000000     0.564600000000     0.592300000000     0.0624763  
H        H      0.936900000000     0.392000000000     0.444300000000     0.0624763  
C        C      0.980800000000     0.035400000000     0.677900000000     0.0557627  
C        C      0.001600000000     0.104100000000     0.727600000000     0.0557627  
C        C      0.087600000000     0.141100000000     0.724800000000     0.0557627  
C        C      0.105700000000     0.207200000000     0.767600000000     0.0557627  
C        C      0.038400000000     0.238200000000     0.812000000000     0.0557627  
C        C      0.954400000000     0.200300000000     0.815700000000     0.0557627  
C        C      0.935000000000     0.135000000000     0.775200000000     0.0557627  
C        C      0.053100000000     0.311100000000     0.855000000000     0.0557627  
C        C      0.681300000000     0.943700000000     0.543800000000     0.0557627  
C        C      0.586800000000     0.973300000000     0.522700000000     0.0557627  
C        C      0.547400000000     0.038000000000     0.554900000000     0.0557627  
C        C      0.537700000000     0.935900000000     0.467200000000     0.0557627  
C        C      0.019200000000     0.535400000000     0.822100000000     0.0557627  
C        C      0.998400000000     0.604100000000     0.772400000000     0.0557627  
C        C      0.912400000000     0.641100000000     0.775200000000     0.0557627  
C        C      0.894300000000     0.707200000000     0.732400000000     0.0557627  
C        C      0.961600000000     0.738200000000     0.688000000000     0.0557627  
C        C      0.045600000000     0.700300000000     0.684300000000     0.0557627  
C        C      0.065000000000     0.635000000000     0.724800000000     0.0557627  
C        C      0.946900000000     0.811100000000     0.645000000000     0.0557627  
C        C      0.318700000000     0.443700000000     0.956200000000     0.0557627  
C        C      0.413200000000     0.473300000000     0.977300000000     0.0557627  
C        C      0.452600000000     0.538000000000     0.945100000000     0.0557627  
C        C      0.462300000000     0.435900000000     0.032800000000     0.0557627  
C        C      0.019200000000     0.964600000000     0.322100000000     0.0557627  
C        C      0.998400000000     0.895900000000     0.272400000000     0.0557627  
C        C      0.912400000000     0.858900000000     0.275200000000     0.0557627  
C        C      0.894300000000     0.792800000000     0.232400000000     0.0557627  
C        C      0.961600000000     0.761800000000     0.188000000000     0.0557627  
C        C      0.045600000000     0.799700000000     0.184300000000     0.0557627  
C        C      0.065000000000     0.865000000000     0.224800000000     0.0557627  
C        C      0.946900000000     0.688900000000     0.145000000000     0.0557627  
C        C      0.318700000000     0.056300000000     0.456200000000     0.0557627  
C        C      0.413200000000     0.026700000000     0.477300000000     0.0557627  
C        C      0.452600000000     0.962000000000     0.445100000000     0.0557627  
C        C      0.462300000000     0.064100000000     0.532800000000     0.0557627  
C        C      0.980800000000     0.464600000000     0.177900000000     0.0557627  
C        C      0.001600000000     0.395900000000     0.227600000000     0.0557627  
C        C      0.087600000000     0.358900000000     0.224800000000     0.0557627  
C        C      0.105700000000     0.292800000000     0.267600000000     0.0557627  
C        C      0.038400000000     0.261800000000     0.312000000000     0.0557627  
C        C      0.954400000000     0.299700000000     0.315700000000     0.0557627  
C        C      0.935000000000     0.365000000000     0.275200000000     0.0557627  
C        C      0.053100000000     0.188900000000     0.355000000000     0.0557627  
C        C      0.681300000000     0.556300000000     0.043800000000     0.0557627  
C        C      0.586800000000     0.526700000000     0.022700000000     0.0557627  
C        C      0.547400000000     0.462000000000     0.054900000000     0.0557627  
C        C      0.537700000000     0.564100000000     0.967200000000     0.0557627  
C        C      0.519200000000     0.964600000000     0.177900000000     0.0557627  
C        C      0.498400000000     0.895900000000     0.227600000000     0.0557627  
C        C      0.412400000000     0.858900000000     0.224800000000     0.0557627  
C        C      0.394300000000     0.792800000000     0.267600000000     0.0557627  
C        C      0.461600000000     0.761800000000     0.312000000000     0.0557627  
C        C      0.545600000000     0.799700000000     0.315700000000     0.0557627  
C        C      0.565000000000     0.865000000000     0.275200000000     0.0557627  
C        C      0.446900000000     0.688900000000     0.355000000000     0.0557627  
C        C      0.818700000000     0.056300000000     0.043800000000     0.0557627  
C        C      0.913200000000     0.026700000000     0.022700000000     0.0557627  
C        C      0.952600000000     0.962000000000     0.054900000000     0.0557627  
C        C      0.962300000000     0.064100000000     0.967200000000     0.0557627  
C        C      0.480800000000     0.464600000000     0.322100000000     0.0557627  
C        C      0.501600000000     0.395900000000     0.272400000000     0.0557627  
C        C      0.587600000000     0.358900000000     0.275200000000     0.0557627  
C        C      0.605700000000     0.292800000000     0.232400000000     0.0557627  
C        C      0.538400000000     0.261800000000     0.188000000000     0.0557627  
C        C      0.454400000000     0.299700000000     0.184300000000     0.0557627  
C        C      0.435000000000     0.365000000000     0.224800000000     0.0557627  
C        C      0.553100000000     0.188900000000     0.145000000000     0.0557627  
C        C      0.181300000000     0.556300000000     0.456200000000     0.0557627  
C        C      0.086800000000     0.526700000000     0.477300000000     0.0557627  
C        C      0.047400000000     0.462000000000     0.445100000000     0.0557627  
C        C      0.037700000000     0.564100000000     0.532800000000     0.0557627  
C        C      0.480800000000     0.035400000000     0.822100000000     0.0557627  
C        C      0.501600000000     0.104100000000     0.772400000000     0.0557627  
C        C      0.587600000000     0.141100000000     0.775200000000     0.0557627  
C        C      0.605700000000     0.207200000000     0.732400000000     0.0557627  
C        C      0.538400000000     0.238200000000     0.688000000000     0.0557627  
C        C      0.454400000000     0.200300000000     0.684300000000     0.0557627  
C        C      0.435000000000     0.135000000000     0.724800000000     0.0557627  
C        C      0.553100000000     0.311100000000     0.645000000000     0.0557627  
C        C      0.181300000000     0.943700000000     0.956200000000     0.0557627  
C        C      0.086800000000     0.973300000000     0.977300000000     0.0557627  
C        C      0.047400000000     0.038000000000     0.945100000000     0.0557627  
C        C      0.037700000000     0.935900000000     0.032800000000     0.0557627  
C        C      0.519200000000     0.535400000000     0.677900000000     0.0557627  
C        C      0.498400000000     0.604100000000     0.727600000000     0.0557627  
C        C      0.412400000000     0.641100000000     0.724800000000     0.0557627  
C        C      0.394300000000     0.707200000000     0.767600000000     0.0557627  
C        C      0.461600000000     0.738200000000     0.812000000000     0.0557627  
C        C      0.545600000000     0.700300000000     0.815700000000     0.0557627  
C        C      0.565000000000     0.635000000000     0.775200000000     0.0557627  
C        C      0.446900000000     0.811100000000     0.855000000000     0.0557627  
C        C      0.818700000000     0.443700000000     0.543800000000     0.0557627  
C        C      0.913200000000     0.473300000000     0.522700000000     0.0557627  
C        C      0.952600000000     0.538000000000     0.554900000000     0.0557627  
C        C      0.962300000000     0.435900000000     0.467200000000     0.0557627  
O        O      0.918000000000     0.961500000000     0.511100000000    -0.277313   
O        O      0.898000000000     0.011900000000     0.680300000000    -0.277313   
O        O      0.044300000000     0.009900000000     0.638600000000    -0.277313   
O        O      0.987900000000     0.338900000000     0.890300000000    -0.277313   
O        O      0.134600000000     0.340600000000     0.853400000000    -0.277313   
O        O      0.719900000000     0.980100000000     0.597500000000    -0.277313   
O        O      0.717100000000     0.889700000000     0.509800000000    -0.277313   
O        O      0.082000000000     0.461500000000     0.988900000000    -0.277313   
O        O      0.102000000000     0.511900000000     0.819700000000    -0.277313   
O        O      0.955700000000     0.509900000000     0.861400000000    -0.277313   
O        O      0.012100000000     0.838900000000     0.609700000000    -0.277313   
O        O      0.865400000000     0.840600000000     0.646600000000    -0.277313   
O        O      0.280100000000     0.480100000000     0.902500000000    -0.277313   
O        O      0.282900000000     0.389700000000     0.990200000000    -0.277313   
O        O      0.082000000000     0.038500000000     0.488900000000    -0.277313   
O        O      0.102000000000     0.988100000000     0.319700000000    -0.277313   
O        O      0.955700000000     0.990100000000     0.361400000000    -0.277313   
O        O      0.012100000000     0.661100000000     0.109700000000    -0.277313   
O        O      0.865400000000     0.659400000000     0.146600000000    -0.277313   
O        O      0.280100000000     0.019900000000     0.402500000000    -0.277313   
O        O      0.282900000000     0.110300000000     0.490200000000    -0.277313   
O        O      0.918000000000     0.538500000000     0.011100000000    -0.277313   
O        O      0.898000000000     0.488100000000     0.180300000000    -0.277313   
O        O      0.044300000000     0.490100000000     0.138600000000    -0.277313   
O        O      0.987900000000     0.161100000000     0.390300000000    -0.277313   
O        O      0.134600000000     0.159400000000     0.353400000000    -0.277313   
O        O      0.719900000000     0.519900000000     0.097500000000    -0.277313   
O        O      0.717100000000     0.610300000000     0.009800000000    -0.277313   
O        O      0.582000000000     0.038500000000     0.011100000000    -0.277313   
O        O      0.602000000000     0.988100000000     0.180300000000    -0.277313   
O        O      0.455700000000     0.990100000000     0.138600000000    -0.277313   
O        O      0.512100000000     0.661100000000     0.390300000000    -0.277313   
O        O      0.365400000000     0.659400000000     0.353400000000    -0.277313   
O        O      0.780100000000     0.019900000000     0.097500000000    -0.277313   
O        O      0.782900000000     0.110300000000     0.009800000000    -0.277313   
O        O      0.418000000000     0.538500000000     0.488900000000    -0.277313   
O        O      0.398000000000     0.488100000000     0.319700000000    -0.277313   
O        O      0.544300000000     0.490100000000     0.361400000000    -0.277313   
O        O      0.487900000000     0.161100000000     0.109700000000    -0.277313   
O        O      0.634600000000     0.159400000000     0.146600000000    -0.277313   
O        O      0.219900000000     0.519900000000     0.402500000000    -0.277313   
O        O      0.217100000000     0.610300000000     0.490200000000    -0.277313   
O        O      0.418000000000     0.961500000000     0.988900000000    -0.277313   
O        O      0.398000000000     0.011900000000     0.819700000000    -0.277313   
O        O      0.544300000000     0.009900000000     0.861400000000    -0.277313   
O        O      0.487900000000     0.338900000000     0.609700000000    -0.277313   
O        O      0.634600000000     0.340600000000     0.646600000000    -0.277313   
O        O      0.219900000000     0.980100000000     0.902500000000    -0.277313   
O        O      0.217100000000     0.889700000000     0.990200000000    -0.277313   
O        O      0.582000000000     0.461500000000     0.511100000000    -0.277313   
O        O      0.602000000000     0.511900000000     0.680300000000    -0.277313   
O        O      0.455700000000     0.509900000000     0.638600000000    -0.277313   
O        O      0.512100000000     0.838900000000     0.890300000000    -0.277313   
O        O      0.365400000000     0.840600000000     0.853400000000    -0.277313   
O        O      0.780100000000     0.480100000000     0.597500000000    -0.277313   
O        O      0.782900000000     0.389700000000     0.509800000000    -0.277313   


