data_XOKHAH_original

_audit_creation_method RASPA-1.0
_audit_creation_date 2022-1-31
_audit_author_name 'Felipe Lopes de Oliveira <felipe.lopes.oliveira@ibm.com>'

_cell_length_a    13.657
_cell_length_b    18.777
_cell_length_c    19.983
_cell_angle_alpha 90
_cell_angle_beta  90
_cell_angle_gamma 90
_cell_volume      5124.39

_symmetry_cell_setting          triclinic
_symmetry_space_group_name_Hall 'P 1'
_symmetry_space_group_name_H-M  'P 1'
_symmetry_Int_Tables_number     1

_symmetry_equiv_pos_as_xyz 'x,y,z'

loop_
_atom_site_label
_atom_site_type_symbol
_atom_site_fract_x
_atom_site_fract_y
_atom_site_fract_z
_atom_site_charge
Zn       Zn     0.366320000000     0.060720000000     0.107270000000     0.483173   
Zn       Zn     0.406520000000     0.951080000000     0.990300000000     0.483173   
Zn       Zn     0.633680000000     0.439280000000     0.607270000000     0.483173   
Zn       Zn     0.593480000000     0.548920000000     0.490300000000     0.483173   
Zn       Zn     0.633680000000     0.939280000000     0.892730000000     0.483173   
Zn       Zn     0.593480000000     0.048920000000     0.009700000000     0.483173   
Zn       Zn     0.366320000000     0.560720000000     0.392730000000     0.483173   
Zn       Zn     0.406520000000     0.451080000000     0.509700000000     0.483173   
Zn       Zn     0.866320000000     0.939280000000     0.392730000000     0.483173   
Zn       Zn     0.906520000000     0.048920000000     0.509700000000     0.483173   
Zn       Zn     0.133680000000     0.560720000000     0.892730000000     0.483173   
Zn       Zn     0.093480000000     0.451080000000     0.009700000000     0.483173   
Zn       Zn     0.133680000000     0.060720000000     0.607270000000     0.483173   
Zn       Zn     0.093480000000     0.951080000000     0.490300000000     0.483173   
Zn       Zn     0.866320000000     0.439280000000     0.107270000000     0.483173   
Zn       Zn     0.906520000000     0.548920000000     0.990300000000     0.483173   
H        H      0.410300000000     0.688000000000     0.214800000000     0.074949   
H        H      0.418900000000     0.776000000000     0.134700000000     0.074949   
H        H      0.397600000000     0.925200000000     0.274500000000     0.074949   
H        H      0.385200000000     0.838600000000     0.355000000000     0.074949   
H        H      0.041500000000     0.060700000000     0.096100000000     0.074949   
H        H      0.118500000000     0.949000000000     0.934400000000     0.074949   
H        H      0.399400000000     0.786700000000     0.020400000000     0.074949   
H        H      0.381700000000     0.678200000000     0.963000000000     0.074949   
H        H      0.360200000000     0.681000000000     0.848600000000     0.074949   
H        H      0.327600000000     0.999800000000     0.704500000000     0.074949   
H        H      0.332100000000     0.096500000000     0.773000000000     0.074949   
H        H      0.364300000000     0.081700000000     0.885500000000     0.074949   
H        H      0.566000000000     0.910000000000     0.995000000000     0.074949   
H        H      0.589700000000     0.812000000000     0.714800000000     0.074949   
H        H      0.581100000000     0.724000000000     0.634700000000     0.074949   
H        H      0.602400000000     0.574800000000     0.774500000000     0.074949   
H        H      0.614800000000     0.661400000000     0.855000000000     0.074949   
H        H      0.958500000000     0.439300000000     0.596100000000     0.074949   
H        H      0.881500000000     0.551000000000     0.434400000000     0.074949   
H        H      0.600600000000     0.713300000000     0.520400000000     0.074949   
H        H      0.618300000000     0.821800000000     0.463000000000     0.074949   
H        H      0.639800000000     0.819000000000     0.348600000000     0.074949   
H        H      0.672400000000     0.500200000000     0.204500000000     0.074949   
H        H      0.667900000000     0.403500000000     0.273000000000     0.074949   
H        H      0.635700000000     0.418300000000     0.385500000000     0.074949   
H        H      0.434000000000     0.590000000000     0.495000000000     0.074949   
H        H      0.589700000000     0.312000000000     0.785200000000     0.074949   
H        H      0.581100000000     0.224000000000     0.865300000000     0.074949   
H        H      0.602400000000     0.074800000000     0.725500000000     0.074949   
H        H      0.614800000000     0.161400000000     0.645000000000     0.074949   
H        H      0.958500000000     0.939300000000     0.903900000000     0.074949   
H        H      0.881500000000     0.051000000000     0.065600000000     0.074949   
H        H      0.600600000000     0.213300000000     0.979600000000     0.074949   
H        H      0.618300000000     0.321800000000     0.037000000000     0.074949   
H        H      0.639800000000     0.319000000000     0.151400000000     0.074949   
H        H      0.672400000000     0.000200000000     0.295500000000     0.074949   
H        H      0.667900000000     0.903500000000     0.227000000000     0.074949   
H        H      0.635700000000     0.918300000000     0.114500000000     0.074949   
H        H      0.434000000000     0.090000000000     0.005000000000     0.074949   
H        H      0.410300000000     0.188000000000     0.285200000000     0.074949   
H        H      0.418900000000     0.276000000000     0.365300000000     0.074949   
H        H      0.397600000000     0.425200000000     0.225500000000     0.074949   
H        H      0.385200000000     0.338600000000     0.145000000000     0.074949   
H        H      0.041500000000     0.560700000000     0.403900000000     0.074949   
H        H      0.118500000000     0.449000000000     0.565600000000     0.074949   
H        H      0.399400000000     0.286700000000     0.479600000000     0.074949   
H        H      0.381700000000     0.178200000000     0.537000000000     0.074949   
H        H      0.360200000000     0.181000000000     0.651400000000     0.074949   
H        H      0.327600000000     0.499800000000     0.795500000000     0.074949   
H        H      0.332100000000     0.596500000000     0.727000000000     0.074949   
H        H      0.364300000000     0.581700000000     0.614500000000     0.074949   
H        H      0.566000000000     0.410000000000     0.505000000000     0.074949   
H        H      0.910300000000     0.312000000000     0.285200000000     0.074949   
H        H      0.918900000000     0.224000000000     0.365300000000     0.074949   
H        H      0.897600000000     0.074800000000     0.225500000000     0.074949   
H        H      0.885200000000     0.161400000000     0.145000000000     0.074949   
H        H      0.541500000000     0.939300000000     0.403900000000     0.074949   
H        H      0.618500000000     0.051000000000     0.565600000000     0.074949   
H        H      0.899400000000     0.213300000000     0.479600000000     0.074949   
H        H      0.881700000000     0.321800000000     0.537000000000     0.074949   
H        H      0.860200000000     0.319000000000     0.651400000000     0.074949   
H        H      0.827600000000     0.000200000000     0.795500000000     0.074949   
H        H      0.832100000000     0.903500000000     0.727000000000     0.074949   
H        H      0.864300000000     0.918300000000     0.614500000000     0.074949   
H        H      0.066000000000     0.090000000000     0.505000000000     0.074949   
H        H      0.089700000000     0.188000000000     0.785200000000     0.074949   
H        H      0.081100000000     0.276000000000     0.865300000000     0.074949   
H        H      0.102400000000     0.425200000000     0.725500000000     0.074949   
H        H      0.114800000000     0.338600000000     0.645000000000     0.074949   
H        H      0.458500000000     0.560700000000     0.903900000000     0.074949   
H        H      0.381500000000     0.449000000000     0.065600000000     0.074949   
H        H      0.100600000000     0.286700000000     0.979600000000     0.074949   
H        H      0.118300000000     0.178200000000     0.037000000000     0.074949   
H        H      0.139800000000     0.181000000000     0.151400000000     0.074949   
H        H      0.172400000000     0.499800000000     0.295500000000     0.074949   
H        H      0.167900000000     0.596500000000     0.227000000000     0.074949   
H        H      0.135700000000     0.581700000000     0.114500000000     0.074949   
H        H      0.934000000000     0.410000000000     0.005000000000     0.074949   
H        H      0.089700000000     0.688000000000     0.714800000000     0.074949   
H        H      0.081100000000     0.776000000000     0.634700000000     0.074949   
H        H      0.102400000000     0.925200000000     0.774500000000     0.074949   
H        H      0.114800000000     0.838600000000     0.855000000000     0.074949   
H        H      0.458500000000     0.060700000000     0.596100000000     0.074949   
H        H      0.381500000000     0.949000000000     0.434400000000     0.074949   
H        H      0.100600000000     0.786700000000     0.520400000000     0.074949   
H        H      0.118300000000     0.678200000000     0.463000000000     0.074949   
H        H      0.139800000000     0.681000000000     0.348600000000     0.074949   
H        H      0.172400000000     0.999800000000     0.204500000000     0.074949   
H        H      0.167900000000     0.096500000000     0.273000000000     0.074949   
H        H      0.135700000000     0.081700000000     0.385500000000     0.074949   
H        H      0.934000000000     0.910000000000     0.495000000000     0.074949   
H        H      0.910300000000     0.812000000000     0.214800000000     0.074949   
H        H      0.918900000000     0.724000000000     0.134700000000     0.074949   
H        H      0.897600000000     0.574800000000     0.274500000000     0.074949   
H        H      0.885200000000     0.661400000000     0.355000000000     0.074949   
H        H      0.541500000000     0.439300000000     0.096100000000     0.074949   
H        H      0.618500000000     0.551000000000     0.934400000000     0.074949   
H        H      0.899400000000     0.713300000000     0.020400000000     0.074949   
H        H      0.881700000000     0.821800000000     0.963000000000     0.074949   
H        H      0.860200000000     0.819000000000     0.848600000000     0.074949   
H        H      0.827600000000     0.500200000000     0.704500000000     0.074949   
H        H      0.832100000000     0.403500000000     0.773000000000     0.074949   
H        H      0.864300000000     0.418300000000     0.885500000000     0.074949   
H        H      0.066000000000     0.590000000000     0.995000000000     0.074949   
C        C      0.395500000000     0.754100000000     0.293100000000     0.0408477  
C        C      0.406500000000     0.735700000000     0.227300000000     0.0408477  
C        C      0.411900000000     0.789100000000     0.179300000000     0.0408477  
C        C      0.407300000000     0.859400000000     0.194400000000     0.0408477  
C        C      0.398700000000     0.877500000000     0.262100000000     0.0408477  
C        C      0.392100000000     0.825600000000     0.310400000000     0.0408477  
C        C      0.385400000000     0.697900000000     0.347300000000     0.0408477  
C        C      0.409400000000     0.916000000000     0.141600000000     0.0408477  
C        C      0.204100000000     0.007500000000     0.038500000000     0.0408477  
C        C      0.097300000000     0.003300000000     0.019600000000     0.0408477  
C        C      0.024800000000     0.035600000000     0.057600000000     0.0408477  
C        C      0.070400000000     0.969200000000     0.961300000000     0.0408477  
C        C      0.390100000000     0.787100000000     0.974300000000     0.0408477  
C        C      0.379600000000     0.721200000000     0.940100000000     0.0408477  
C        C      0.366500000000     0.723200000000     0.872600000000     0.0408477  
C        C      0.362400000000     0.787200000000     0.840200000000     0.0408477  
C        C      0.351000000000     0.787800000000     0.767700000000     0.0408477  
C        C      0.348400000000     0.860400000000     0.733900000000     0.0408477  
C        C      0.351400000000     0.926300000000     0.777100000000     0.0408477  
C        C      0.338600000000     0.994200000000     0.750200000000     0.0408477  
C        C      0.342100000000     0.051100000000     0.790300000000     0.0408477  
C        C      0.361100000000     0.041700000000     0.858100000000     0.0408477  
C        C      0.366800000000     0.919200000000     0.844000000000     0.0408477  
C        C      0.373600000000     0.848500000000     0.877100000000     0.0408477  
C        C      0.604500000000     0.745900000000     0.793100000000     0.0408477  
C        C      0.593500000000     0.764300000000     0.727300000000     0.0408477  
C        C      0.588100000000     0.710900000000     0.679300000000     0.0408477  
C        C      0.592700000000     0.640600000000     0.694400000000     0.0408477  
C        C      0.601300000000     0.622500000000     0.762100000000     0.0408477  
C        C      0.607900000000     0.674400000000     0.810400000000     0.0408477  
C        C      0.614600000000     0.802100000000     0.847300000000     0.0408477  
C        C      0.590600000000     0.584000000000     0.641600000000     0.0408477  
C        C      0.795900000000     0.492500000000     0.538500000000     0.0408477  
C        C      0.902700000000     0.496700000000     0.519600000000     0.0408477  
C        C      0.975200000000     0.464400000000     0.557600000000     0.0408477  
C        C      0.929600000000     0.530800000000     0.461300000000     0.0408477  
C        C      0.609900000000     0.712900000000     0.474300000000     0.0408477  
C        C      0.620400000000     0.778800000000     0.440100000000     0.0408477  
C        C      0.633500000000     0.776800000000     0.372600000000     0.0408477  
C        C      0.637600000000     0.712800000000     0.340200000000     0.0408477  
C        C      0.649000000000     0.712200000000     0.267700000000     0.0408477  
C        C      0.651600000000     0.639600000000     0.233900000000     0.0408477  
C        C      0.648600000000     0.573700000000     0.277100000000     0.0408477  
C        C      0.661400000000     0.505800000000     0.250200000000     0.0408477  
C        C      0.657900000000     0.448900000000     0.290300000000     0.0408477  
C        C      0.638900000000     0.458300000000     0.358100000000     0.0408477  
C        C      0.633200000000     0.580800000000     0.344000000000     0.0408477  
C        C      0.626400000000     0.651500000000     0.377100000000     0.0408477  
C        C      0.604500000000     0.245900000000     0.706900000000     0.0408477  
C        C      0.593500000000     0.264300000000     0.772700000000     0.0408477  
C        C      0.588100000000     0.210900000000     0.820700000000     0.0408477  
C        C      0.592700000000     0.140600000000     0.805600000000     0.0408477  
C        C      0.601300000000     0.122500000000     0.737900000000     0.0408477  
C        C      0.607900000000     0.174400000000     0.689600000000     0.0408477  
C        C      0.614600000000     0.302100000000     0.652700000000     0.0408477  
C        C      0.590600000000     0.084000000000     0.858400000000     0.0408477  
C        C      0.795900000000     0.992500000000     0.961500000000     0.0408477  
C        C      0.902700000000     0.996700000000     0.980400000000     0.0408477  
C        C      0.975200000000     0.964400000000     0.942400000000     0.0408477  
C        C      0.929600000000     0.030800000000     0.038700000000     0.0408477  
C        C      0.609900000000     0.212900000000     0.025700000000     0.0408477  
C        C      0.620400000000     0.278800000000     0.059900000000     0.0408477  
C        C      0.633500000000     0.276800000000     0.127400000000     0.0408477  
C        C      0.637600000000     0.212800000000     0.159800000000     0.0408477  
C        C      0.649000000000     0.212200000000     0.232300000000     0.0408477  
C        C      0.651600000000     0.139600000000     0.266100000000     0.0408477  
C        C      0.648600000000     0.073700000000     0.222900000000     0.0408477  
C        C      0.661400000000     0.005800000000     0.249800000000     0.0408477  
C        C      0.657900000000     0.948900000000     0.209700000000     0.0408477  
C        C      0.638900000000     0.958300000000     0.141900000000     0.0408477  
C        C      0.633200000000     0.080800000000     0.156000000000     0.0408477  
C        C      0.626400000000     0.151500000000     0.122900000000     0.0408477  
C        C      0.395500000000     0.254100000000     0.206900000000     0.0408477  
C        C      0.406500000000     0.235700000000     0.272700000000     0.0408477  
C        C      0.411900000000     0.289100000000     0.320700000000     0.0408477  
C        C      0.407300000000     0.359400000000     0.305600000000     0.0408477  
C        C      0.398700000000     0.377500000000     0.237900000000     0.0408477  
C        C      0.392100000000     0.325600000000     0.189600000000     0.0408477  
C        C      0.385400000000     0.197900000000     0.152700000000     0.0408477  
C        C      0.409400000000     0.416000000000     0.358400000000     0.0408477  
C        C      0.204100000000     0.507500000000     0.461500000000     0.0408477  
C        C      0.097300000000     0.503300000000     0.480400000000     0.0408477  
C        C      0.024800000000     0.535600000000     0.442400000000     0.0408477  
C        C      0.070400000000     0.469200000000     0.538700000000     0.0408477  
C        C      0.390100000000     0.287100000000     0.525700000000     0.0408477  
C        C      0.379600000000     0.221200000000     0.559900000000     0.0408477  
C        C      0.366500000000     0.223200000000     0.627400000000     0.0408477  
C        C      0.362400000000     0.287200000000     0.659800000000     0.0408477  
C        C      0.351000000000     0.287800000000     0.732300000000     0.0408477  
C        C      0.348400000000     0.360400000000     0.766100000000     0.0408477  
C        C      0.351400000000     0.426300000000     0.722900000000     0.0408477  
C        C      0.338600000000     0.494200000000     0.749800000000     0.0408477  
C        C      0.342100000000     0.551100000000     0.709700000000     0.0408477  
C        C      0.361100000000     0.541700000000     0.641900000000     0.0408477  
C        C      0.366800000000     0.419200000000     0.656000000000     0.0408477  
C        C      0.373600000000     0.348500000000     0.622900000000     0.0408477  
C        C      0.895500000000     0.245900000000     0.206900000000     0.0408477  
C        C      0.906500000000     0.264300000000     0.272700000000     0.0408477  
C        C      0.911900000000     0.210900000000     0.320700000000     0.0408477  
C        C      0.907300000000     0.140600000000     0.305600000000     0.0408477  
C        C      0.898700000000     0.122500000000     0.237900000000     0.0408477  
C        C      0.892100000000     0.174400000000     0.189600000000     0.0408477  
C        C      0.885400000000     0.302100000000     0.152700000000     0.0408477  
C        C      0.909400000000     0.084000000000     0.358400000000     0.0408477  
C        C      0.704100000000     0.992500000000     0.461500000000     0.0408477  
C        C      0.597300000000     0.996700000000     0.480400000000     0.0408477  
C        C      0.524800000000     0.964400000000     0.442400000000     0.0408477  
C        C      0.570400000000     0.030800000000     0.538700000000     0.0408477  
C        C      0.890100000000     0.212900000000     0.525700000000     0.0408477  
C        C      0.879600000000     0.278800000000     0.559900000000     0.0408477  
C        C      0.866500000000     0.276800000000     0.627400000000     0.0408477  
C        C      0.862400000000     0.212800000000     0.659800000000     0.0408477  
C        C      0.851000000000     0.212200000000     0.732300000000     0.0408477  
C        C      0.848400000000     0.139600000000     0.766100000000     0.0408477  
C        C      0.851400000000     0.073700000000     0.722900000000     0.0408477  
C        C      0.838600000000     0.005800000000     0.749800000000     0.0408477  
C        C      0.842100000000     0.948900000000     0.709700000000     0.0408477  
C        C      0.861100000000     0.958300000000     0.641900000000     0.0408477  
C        C      0.866800000000     0.080800000000     0.656000000000     0.0408477  
C        C      0.873600000000     0.151500000000     0.622900000000     0.0408477  
C        C      0.104500000000     0.254100000000     0.706900000000     0.0408477  
C        C      0.093500000000     0.235700000000     0.772700000000     0.0408477  
C        C      0.088100000000     0.289100000000     0.820700000000     0.0408477  
C        C      0.092700000000     0.359400000000     0.805600000000     0.0408477  
C        C      0.101300000000     0.377500000000     0.737900000000     0.0408477  
C        C      0.107900000000     0.325600000000     0.689600000000     0.0408477  
C        C      0.114600000000     0.197900000000     0.652700000000     0.0408477  
C        C      0.090600000000     0.416000000000     0.858400000000     0.0408477  
C        C      0.295900000000     0.507500000000     0.961500000000     0.0408477  
C        C      0.402700000000     0.503300000000     0.980400000000     0.0408477  
C        C      0.475200000000     0.535600000000     0.942400000000     0.0408477  
C        C      0.429600000000     0.469200000000     0.038700000000     0.0408477  
C        C      0.109900000000     0.287100000000     0.025700000000     0.0408477  
C        C      0.120400000000     0.221200000000     0.059900000000     0.0408477  
C        C      0.133500000000     0.223200000000     0.127400000000     0.0408477  
C        C      0.137600000000     0.287200000000     0.159800000000     0.0408477  
C        C      0.149000000000     0.287800000000     0.232300000000     0.0408477  
C        C      0.151600000000     0.360400000000     0.266100000000     0.0408477  
C        C      0.148600000000     0.426300000000     0.222900000000     0.0408477  
C        C      0.161400000000     0.494200000000     0.249800000000     0.0408477  
C        C      0.157900000000     0.551100000000     0.209700000000     0.0408477  
C        C      0.138900000000     0.541700000000     0.141900000000     0.0408477  
C        C      0.133200000000     0.419200000000     0.156000000000     0.0408477  
C        C      0.126400000000     0.348500000000     0.122900000000     0.0408477  
C        C      0.104500000000     0.754100000000     0.793100000000     0.0408477  
C        C      0.093500000000     0.735700000000     0.727300000000     0.0408477  
C        C      0.088100000000     0.789100000000     0.679300000000     0.0408477  
C        C      0.092700000000     0.859400000000     0.694400000000     0.0408477  
C        C      0.101300000000     0.877500000000     0.762100000000     0.0408477  
C        C      0.107900000000     0.825600000000     0.810400000000     0.0408477  
C        C      0.114600000000     0.697900000000     0.847300000000     0.0408477  
C        C      0.090600000000     0.916000000000     0.641600000000     0.0408477  
C        C      0.295900000000     0.007500000000     0.538500000000     0.0408477  
C        C      0.402700000000     0.003300000000     0.519600000000     0.0408477  
C        C      0.475200000000     0.035600000000     0.557600000000     0.0408477  
C        C      0.429600000000     0.969200000000     0.461300000000     0.0408477  
C        C      0.109900000000     0.787100000000     0.474300000000     0.0408477  
C        C      0.120400000000     0.721200000000     0.440100000000     0.0408477  
C        C      0.133500000000     0.723200000000     0.372600000000     0.0408477  
C        C      0.137600000000     0.787200000000     0.340200000000     0.0408477  
C        C      0.149000000000     0.787800000000     0.267700000000     0.0408477  
C        C      0.151600000000     0.860400000000     0.233900000000     0.0408477  
C        C      0.148600000000     0.926300000000     0.277100000000     0.0408477  
C        C      0.161400000000     0.994200000000     0.250200000000     0.0408477  
C        C      0.157900000000     0.051100000000     0.290300000000     0.0408477  
C        C      0.138900000000     0.041700000000     0.358100000000     0.0408477  
C        C      0.133200000000     0.919200000000     0.344000000000     0.0408477  
C        C      0.126400000000     0.848500000000     0.377100000000     0.0408477  
C        C      0.895500000000     0.745900000000     0.293100000000     0.0408477  
C        C      0.906500000000     0.764300000000     0.227300000000     0.0408477  
C        C      0.911900000000     0.710900000000     0.179300000000     0.0408477  
C        C      0.907300000000     0.640600000000     0.194400000000     0.0408477  
C        C      0.898700000000     0.622500000000     0.262100000000     0.0408477  
C        C      0.892100000000     0.674400000000     0.310400000000     0.0408477  
C        C      0.885400000000     0.802100000000     0.347300000000     0.0408477  
C        C      0.909400000000     0.584000000000     0.141600000000     0.0408477  
C        C      0.704100000000     0.492500000000     0.038500000000     0.0408477  
C        C      0.597300000000     0.496700000000     0.019600000000     0.0408477  
C        C      0.524800000000     0.464400000000     0.057600000000     0.0408477  
C        C      0.570400000000     0.530800000000     0.961300000000     0.0408477  
C        C      0.890100000000     0.712900000000     0.974300000000     0.0408477  
C        C      0.879600000000     0.778800000000     0.940100000000     0.0408477  
C        C      0.866500000000     0.776800000000     0.872600000000     0.0408477  
C        C      0.862400000000     0.712800000000     0.840200000000     0.0408477  
C        C      0.851000000000     0.712200000000     0.767700000000     0.0408477  
C        C      0.848400000000     0.639600000000     0.733900000000     0.0408477  
C        C      0.851400000000     0.573700000000     0.777100000000     0.0408477  
C        C      0.838600000000     0.505800000000     0.750200000000     0.0408477  
C        C      0.842100000000     0.448900000000     0.790300000000     0.0408477  
C        C      0.861100000000     0.458300000000     0.858100000000     0.0408477  
C        C      0.866800000000     0.580800000000     0.844000000000     0.0408477  
C        C      0.873600000000     0.651500000000     0.877100000000     0.0408477  
N        N      0.386900000000     0.848800000000     0.942900000000    -0.145468   
N        N      0.375100000000     0.976800000000     0.885900000000    -0.145468   
N        N      0.613100000000     0.651200000000     0.442900000000    -0.145468   
N        N      0.624900000000     0.523200000000     0.385900000000    -0.145468   
N        N      0.613100000000     0.151200000000     0.057100000000    -0.145468   
N        N      0.624900000000     0.023200000000     0.114100000000    -0.145468   
N        N      0.386900000000     0.348800000000     0.557100000000    -0.145468   
N        N      0.375100000000     0.476800000000     0.614100000000    -0.145468   
N        N      0.886900000000     0.151200000000     0.557100000000    -0.145468   
N        N      0.875100000000     0.023200000000     0.614100000000    -0.145468   
N        N      0.113100000000     0.348800000000     0.057100000000    -0.145468   
N        N      0.124900000000     0.476800000000     0.114100000000    -0.145468   
N        N      0.113100000000     0.848800000000     0.442900000000    -0.145468   
N        N      0.124900000000     0.976800000000     0.385900000000    -0.145468   
N        N      0.886900000000     0.651200000000     0.942900000000    -0.145468   
N        N      0.875100000000     0.523200000000     0.885900000000    -0.145468   
O        O      0.389800000000     0.633400000000     0.327200000000    -0.292233   
O        O      0.372000000000     0.717200000000     0.404000000000    -0.292233   
O        O      0.424500000000     0.898200000000     0.082800000000    -0.292233   
O        O      0.394100000000     0.978200000000     0.163700000000    -0.292233   
O        O      0.260100000000     0.966300000000     0.008700000000    -0.292233   
O        O      0.227300000000     0.051200000000     0.083800000000    -0.292233   
O        O      0.342200000000     0.735400000000     0.734100000000    -0.292233   
O        O      0.342900000000     0.866700000000     0.672100000000    -0.292233   
O        O      0.559100000000     0.946300000000     0.976500000000    -0.292233   
O        O      0.610200000000     0.866600000000     0.827200000000    -0.292233   
O        O      0.628000000000     0.782800000000     0.904000000000    -0.292233   
O        O      0.575500000000     0.601800000000     0.582800000000    -0.292233   
O        O      0.605900000000     0.521800000000     0.663700000000    -0.292233   
O        O      0.739900000000     0.533700000000     0.508700000000    -0.292233   
O        O      0.772700000000     0.448800000000     0.583800000000    -0.292233   
O        O      0.657800000000     0.764600000000     0.234100000000    -0.292233   
O        O      0.657100000000     0.633300000000     0.172100000000    -0.292233   
O        O      0.440900000000     0.553700000000     0.476500000000    -0.292233   
O        O      0.610200000000     0.366600000000     0.672800000000    -0.292233   
O        O      0.628000000000     0.282800000000     0.596000000000    -0.292233   
O        O      0.575500000000     0.101800000000     0.917200000000    -0.292233   
O        O      0.605900000000     0.021800000000     0.836300000000    -0.292233   
O        O      0.739900000000     0.033700000000     0.991300000000    -0.292233   
O        O      0.772700000000     0.948800000000     0.916200000000    -0.292233   
O        O      0.657800000000     0.264600000000     0.265900000000    -0.292233   
O        O      0.657100000000     0.133300000000     0.327900000000    -0.292233   
O        O      0.440900000000     0.053700000000     0.023500000000    -0.292233   
O        O      0.389800000000     0.133400000000     0.172800000000    -0.292233   
O        O      0.372000000000     0.217200000000     0.096000000000    -0.292233   
O        O      0.424500000000     0.398200000000     0.417200000000    -0.292233   
O        O      0.394100000000     0.478200000000     0.336300000000    -0.292233   
O        O      0.260100000000     0.466300000000     0.491300000000    -0.292233   
O        O      0.227300000000     0.551200000000     0.416200000000    -0.292233   
O        O      0.342200000000     0.235400000000     0.765900000000    -0.292233   
O        O      0.342900000000     0.366700000000     0.827900000000    -0.292233   
O        O      0.559100000000     0.446300000000     0.523500000000    -0.292233   
O        O      0.889800000000     0.366600000000     0.172800000000    -0.292233   
O        O      0.872000000000     0.282800000000     0.096000000000    -0.292233   
O        O      0.924500000000     0.101800000000     0.417200000000    -0.292233   
O        O      0.894100000000     0.021800000000     0.336300000000    -0.292233   
O        O      0.760100000000     0.033700000000     0.491300000000    -0.292233   
O        O      0.727300000000     0.948800000000     0.416200000000    -0.292233   
O        O      0.842200000000     0.264600000000     0.765900000000    -0.292233   
O        O      0.842900000000     0.133300000000     0.827900000000    -0.292233   
O        O      0.059100000000     0.053700000000     0.523500000000    -0.292233   
O        O      0.110200000000     0.133400000000     0.672800000000    -0.292233   
O        O      0.128000000000     0.217200000000     0.596000000000    -0.292233   
O        O      0.075500000000     0.398200000000     0.917200000000    -0.292233   
O        O      0.105900000000     0.478200000000     0.836300000000    -0.292233   
O        O      0.239900000000     0.466300000000     0.991300000000    -0.292233   
O        O      0.272700000000     0.551200000000     0.916200000000    -0.292233   
O        O      0.157800000000     0.235400000000     0.265900000000    -0.292233   
O        O      0.157100000000     0.366700000000     0.327900000000    -0.292233   
O        O      0.940900000000     0.446300000000     0.023500000000    -0.292233   
O        O      0.110200000000     0.633400000000     0.827200000000    -0.292233   
O        O      0.128000000000     0.717200000000     0.904000000000    -0.292233   
O        O      0.075500000000     0.898200000000     0.582800000000    -0.292233   
O        O      0.105900000000     0.978200000000     0.663700000000    -0.292233   
O        O      0.239900000000     0.966300000000     0.508700000000    -0.292233   
O        O      0.272700000000     0.051200000000     0.583800000000    -0.292233   
O        O      0.157800000000     0.735400000000     0.234100000000    -0.292233   
O        O      0.157100000000     0.866700000000     0.172100000000    -0.292233   
O        O      0.940900000000     0.946300000000     0.476500000000    -0.292233   
O        O      0.889800000000     0.866600000000     0.327200000000    -0.292233   
O        O      0.872000000000     0.782800000000     0.404000000000    -0.292233   
O        O      0.924500000000     0.601800000000     0.082800000000    -0.292233   
O        O      0.894100000000     0.521800000000     0.163700000000    -0.292233   
O        O      0.760100000000     0.533700000000     0.008700000000    -0.292233   
O        O      0.727300000000     0.448800000000     0.083800000000    -0.292233   
O        O      0.842200000000     0.764600000000     0.734100000000    -0.292233   
O        O      0.842900000000     0.633300000000     0.672100000000    -0.292233   
O        O      0.059100000000     0.553700000000     0.976500000000    -0.292233   


