data_XOVVOU_original

_audit_creation_method RASPA-1.0
_audit_creation_date 2022-1-30
_audit_author_name 'Felipe Lopes de Oliveira <felipe.lopes.oliveira@ibm.com>'

_cell_length_a    13.7326
_cell_length_b    13.7326
_cell_length_c    14.0822
_cell_angle_alpha 87.481
_cell_angle_beta  87.481
_cell_angle_gamma 60.1379
_cell_volume      2300.11

_symmetry_cell_setting          triclinic
_symmetry_space_group_name_Hall 'P 1'
_symmetry_space_group_name_H-M  'P 1'
_symmetry_Int_Tables_number     1

_symmetry_equiv_pos_as_xyz 'x,y,z'

loop_
_atom_site_label
_atom_site_type_symbol
_atom_site_fract_x
_atom_site_fract_y
_atom_site_fract_z
_atom_site_charge
Zn       Zn     0.537970000000     0.846350000000     0.012790000000     0.355271   
Zn       Zn     0.561120000000     0.023320000000     0.389880000000     0.355271   
Zn       Zn     0.153650000000     0.462030000000     0.487210000000     0.355271   
Zn       Zn     0.976680000000     0.438880000000     0.110120000000     0.355271   
Zn       Zn     0.462030000000     0.153650000000     0.987210000000     0.355271   
Zn       Zn     0.438880000000     0.976680000000     0.610120000000     0.355271   
Zn       Zn     0.846350000000     0.537970000000     0.512790000000     0.355271   
Zn       Zn     0.023320000000     0.561120000000     0.889880000000     0.355271   
H        H      0.558800000000     0.851800000000     0.236200000000     0.0270947  
H        H      0.454200000000     0.170600000000     0.207600000000     0.0270947  
H        H      0.381500000000     0.285500000000     0.384500000000     0.0270947  
H        H      0.240500000000     0.230900000000     0.608700000000     0.0270947  
H        H      0.892100000000     0.949700000000     0.311300000000     0.0270947  
H        H      0.148200000000     0.441200000000     0.263800000000     0.0270947  
H        H      0.829400000000     0.545800000000     0.292400000000     0.0270947  
H        H      0.714500000000     0.618500000000     0.115500000000     0.0270947  
H        H      0.769100000000     0.759500000000     0.891300000000     0.0270947  
H        H      0.050300000000     0.107900000000     0.188700000000     0.0270947  
H        H      0.441200000000     0.148200000000     0.763800000000     0.0270947  
H        H      0.545800000000     0.829400000000     0.792400000000     0.0270947  
H        H      0.618500000000     0.714500000000     0.615500000000     0.0270947  
H        H      0.759500000000     0.769100000000     0.391300000000     0.0270947  
H        H      0.107900000000     0.050300000000     0.688700000000     0.0270947  
H        H      0.851800000000     0.558800000000     0.736200000000     0.0270947  
H        H      0.170600000000     0.454200000000     0.707600000000     0.0270947  
H        H      0.285500000000     0.381500000000     0.884500000000     0.0270947  
H        H      0.230900000000     0.240500000000     0.108700000000     0.0270947  
H        H      0.949700000000     0.892100000000     0.811300000000     0.0270947  
H        H      0.719700000000     0.280300000000     0.250000000000     0.0270947  
H        H      0.280300000000     0.719700000000     0.750000000000     0.0270947  
C        C      0.533100000000     0.923500000000     0.210000000000     0.085733   
C        C      0.476900000000     0.096500000000     0.194000000000     0.085733   
C        C      0.367800000000     0.250200000000     0.437000000000     0.085733   
C        C      0.291000000000     0.221000000000     0.558700000000     0.085733   
C        C      0.788700000000     0.116300000000     0.284400000000     0.085733   
C        C      0.889200000000     0.015000000000     0.286400000000     0.085733   
C        C      0.682900000000     0.118500000000     0.320300000000     0.085733   
C        C      0.076500000000     0.466900000000     0.290000000000     0.085733   
C        C      0.903500000000     0.523100000000     0.306000000000     0.085733   
C        C      0.749800000000     0.632200000000     0.063000000000     0.085733   
C        C      0.779000000000     0.709000000000     0.941300000000     0.085733   
C        C      0.883700000000     0.211300000000     0.215600000000     0.085733   
C        C      0.985000000000     0.110800000000     0.213600000000     0.085733   
C        C      0.881500000000     0.317100000000     0.179700000000     0.085733   
C        C      0.466900000000     0.076500000000     0.790000000000     0.085733   
C        C      0.523100000000     0.903500000000     0.806000000000     0.085733   
C        C      0.632200000000     0.749800000000     0.563000000000     0.085733   
C        C      0.709000000000     0.779000000000     0.441300000000     0.085733   
C        C      0.211300000000     0.883700000000     0.715600000000     0.085733   
C        C      0.110800000000     0.985000000000     0.713600000000     0.085733   
C        C      0.317100000000     0.881500000000     0.679700000000     0.085733   
C        C      0.923500000000     0.533100000000     0.710000000000     0.085733   
C        C      0.096500000000     0.476900000000     0.694000000000     0.085733   
C        C      0.250200000000     0.367800000000     0.937000000000     0.085733   
C        C      0.221000000000     0.291000000000     0.058700000000     0.085733   
C        C      0.116300000000     0.788700000000     0.784400000000     0.085733   
C        C      0.015000000000     0.889200000000     0.786400000000     0.085733   
C        C      0.118500000000     0.682900000000     0.820300000000     0.085733   
C        C      0.787200000000     0.212800000000     0.250000000000     0.085733   
C        C      0.985600000000     0.014400000000     0.250000000000     0.085733   
C        C      0.212800000000     0.787200000000     0.750000000000     0.085733   
C        C      0.014400000000     0.985600000000     0.750000000000     0.085733   
N        N      0.513000000000     0.949200000000     0.118100000000    -0.136427   
N        N      0.477900000000     0.061900000000     0.107500000000    -0.136427   
N        N      0.512300000000     0.012700000000     0.260500000000    -0.136427   
N        N      0.433670000000     0.143870000000     0.461700000000    -0.136427   
N        N      0.384400000000     0.123800000000     0.541400000000    -0.136427   
N        N      0.278200000000     0.301400000000     0.496700000000    -0.136427   
N        N      0.050800000000     0.487000000000     0.381900000000    -0.136427   
N        N      0.938100000000     0.522100000000     0.392500000000    -0.136427   
N        N      0.987300000000     0.487700000000     0.239500000000    -0.136427   
N        N      0.856130000000     0.566330000000     0.038300000000    -0.136427   
N        N      0.876200000000     0.615600000000     0.958600000000    -0.136427   
N        N      0.698600000000     0.721800000000     0.003300000000    -0.136427   
N        N      0.487000000000     0.050800000000     0.881900000000    -0.136427   
N        N      0.522100000000     0.938100000000     0.892500000000    -0.136427   
N        N      0.487700000000     0.987300000000     0.739500000000    -0.136427   
N        N      0.566330000000     0.856130000000     0.538300000000    -0.136427   
N        N      0.615600000000     0.876200000000     0.458600000000    -0.136427   
N        N      0.721800000000     0.698600000000     0.503300000000    -0.136427   
N        N      0.949200000000     0.513000000000     0.618100000000    -0.136427   
N        N      0.061900000000     0.477900000000     0.607500000000    -0.136427   
N        N      0.012700000000     0.512300000000     0.760500000000    -0.136427   
N        N      0.143870000000     0.433670000000     0.961700000000    -0.136427   
N        N      0.123800000000     0.384400000000     0.041400000000    -0.136427   
N        N      0.301400000000     0.278200000000     0.996700000000    -0.136427   
N        N      0.092300000000     0.907700000000     0.250000000000    -0.136427   
N        N      0.907700000000     0.092300000000     0.750000000000    -0.136427   
O        O      0.697880000000     0.029680000000     0.364800000000    -0.21955    
O        O      0.590330000000     0.199130000000     0.305900000000    -0.21955    
O        O      0.177800000000     0.909800000000     0.227500000000    -0.21955    
O        O      0.970320000000     0.302120000000     0.135200000000    -0.21955    
O        O      0.800870000000     0.409670000000     0.194100000000    -0.21955    
O        O      0.090200000000     0.822200000000     0.272500000000    -0.21955    
O        O      0.302120000000     0.970320000000     0.635200000000    -0.21955    
O        O      0.409670000000     0.800870000000     0.694100000000    -0.21955    
O        O      0.822200000000     0.090200000000     0.772500000000    -0.21955    
O        O      0.029680000000     0.697880000000     0.864800000000    -0.21955    
O        O      0.199130000000     0.590330000000     0.805900000000    -0.21955    
O        O      0.909800000000     0.177800000000     0.727500000000    -0.21955    


