data_XOVVEK_original

_audit_creation_method RASPA-1.0
_audit_creation_date 2022-1-31
_audit_author_name 'Felipe Lopes de Oliveira <felipe.lopes.oliveira@ibm.com>'

_cell_length_a    9.758
_cell_length_b    11.89
_cell_length_c    15.22
_cell_angle_alpha 95.544
_cell_angle_beta  99.068
_cell_angle_gamma 112.874
_cell_volume      1582.29

_symmetry_cell_setting          triclinic
_symmetry_space_group_name_Hall 'P 1'
_symmetry_space_group_name_H-M  'P 1'
_symmetry_Int_Tables_number     1

_symmetry_equiv_pos_as_xyz 'x,y,z'

loop_
_atom_site_label
_atom_site_type_symbol
_atom_site_fract_x
_atom_site_fract_y
_atom_site_fract_z
_atom_site_charge
Zn       Zn     0.009860000000     0.928100000000     0.205490000000     0.405526   
Zn       Zn     0.557130000000     0.890770000000     0.431420000000     0.405526   
Zn       Zn     0.108840000000     0.811870000000     0.830790000000     0.405526   
Zn       Zn     0.990140000000     0.071900000000     0.794510000000     0.405526   
Zn       Zn     0.442870000000     0.109230000000     0.568580000000     0.405526   
Zn       Zn     0.891160000000     0.188130000000     0.169210000000     0.405526   
Zn       Zn     0.500000000000     0.000000000000     0.000000000000     0.405526   
H        H      0.316300000000     0.033800000000     0.143500000000     0.0359677  
H        H      0.927000000000     0.823300000000     0.987100000000     0.0359677  
H        H      0.822600000000     0.863400000000     0.355800000000     0.0359677  
H        H      0.650500000000     0.096200000000     0.297000000000     0.0359677  
H        H      0.276800000000     0.835200000000     0.272000000000     0.0359677  
H        H      0.180100000000     0.078300000000     0.404600000000     0.0359677  
H        H      0.802300000000     0.510400000000     0.165500000000     0.0359677  
H        H      0.456100000000     0.611200000000     0.100300000000     0.0359677  
H        H      0.284000000000     0.405300000000     0.075300000000     0.0359677  
H        H      0.375100000000     0.250400000000     0.085400000000     0.0359677  
H        H      0.307300000000     0.494800000000     0.324000000000     0.0359677  
H        H      0.723300000000     0.538300000000     0.444500000000     0.0359677  
H        H      0.665400000000     0.334400000000     0.391500000000     0.0359677  
H        H      0.430500000000     0.211100000000     0.301300000000     0.0359677  
H        H      0.683700000000     0.966200000000     0.856500000000     0.0359677  
H        H      0.073000000000     0.176700000000     0.012900000000     0.0359677  
H        H      0.177400000000     0.136600000000     0.644200000000     0.0359677  
H        H      0.349500000000     0.903800000000     0.703000000000     0.0359677  
H        H      0.723200000000     0.164800000000     0.728000000000     0.0359677  
H        H      0.819900000000     0.921700000000     0.595400000000     0.0359677  
H        H      0.197700000000     0.489600000000     0.834500000000     0.0359677  
H        H      0.543900000000     0.388800000000     0.899700000000     0.0359677  
H        H      0.716000000000     0.594700000000     0.924700000000     0.0359677  
H        H      0.624900000000     0.749600000000     0.914600000000     0.0359677  
H        H      0.692700000000     0.505200000000     0.676000000000     0.0359677  
H        H      0.276700000000     0.461700000000     0.555500000000     0.0359677  
H        H      0.334600000000     0.665600000000     0.608500000000     0.0359677  
H        H      0.569500000000     0.788900000000     0.698700000000     0.0359677  
C        C      0.242400000000     0.984500000000     0.093000000000     0.0723534  
C        C      0.030700000000     0.870400000000     0.008600000000     0.0723534  
C        C      0.803200000000     0.925300000000     0.330500000000     0.0723534  
C        C      0.710400000000     0.051500000000     0.298600000000     0.0723534  
C        C      0.279900000000     0.895500000000     0.316900000000     0.0723534  
C        C      0.227300000000     0.027000000000     0.389100000000     0.0723534  
C        C      0.656900000000     0.267500000000     0.135600000000     0.0723534  
C        C      0.759900000000     0.713700000000     0.147900000000     0.0723534  
C        C      0.598700000000     0.366500000000     0.126800000000     0.0723534  
C        C      0.699000000000     0.489400000000     0.145300000000     0.0723534  
C        C      0.648700000000     0.582600000000     0.134300000000     0.0723534  
C        C      0.491300000000     0.549600000000     0.107400000000     0.0723534  
C        C      0.388000000000     0.426300000000     0.091100000000     0.0723534  
C        C      0.442700000000     0.333500000000     0.098800000000     0.0723534  
C        C      0.189200000000     0.258800000000     0.246200000000     0.0723534  
C        C      0.566700000000     0.673500000000     0.417100000000     0.0723534  
C        C      0.343600000000     0.341200000000     0.303400000000     0.0723534  
C        C      0.380100000000     0.462900000000     0.336000000000     0.0723534  
C        C      0.523900000000     0.539400000000     0.386800000000     0.0723534  
C        C      0.628100000000     0.488700000000     0.408200000000     0.0723534  
C        C      0.593800000000     0.367000000000     0.376900000000     0.0723534  
C        C      0.453300000000     0.293300000000     0.323900000000     0.0723534  
C        C      0.757600000000     0.015500000000     0.907000000000     0.0723534  
C        C      0.969300000000     0.129600000000     0.991400000000     0.0723534  
C        C      0.196800000000     0.074700000000     0.669500000000     0.0723534  
C        C      0.289600000000     0.948500000000     0.701400000000     0.0723534  
C        C      0.720100000000     0.104500000000     0.683100000000     0.0723534  
C        C      0.772700000000     0.973000000000     0.610900000000     0.0723534  
C        C      0.343100000000     0.732500000000     0.864400000000     0.0723534  
C        C      0.240100000000     0.286300000000     0.852100000000     0.0723534  
C        C      0.401300000000     0.633500000000     0.873200000000     0.0723534  
C        C      0.301000000000     0.510600000000     0.854700000000     0.0723534  
C        C      0.351300000000     0.417400000000     0.865700000000     0.0723534  
C        C      0.508700000000     0.450400000000     0.892600000000     0.0723534  
C        C      0.612000000000     0.573700000000     0.908900000000     0.0723534  
C        C      0.557300000000     0.666500000000     0.901200000000     0.0723534  
C        C      0.810800000000     0.741200000000     0.753800000000     0.0723534  
C        C      0.433300000000     0.326500000000     0.582900000000     0.0723534  
C        C      0.656400000000     0.658800000000     0.696600000000     0.0723534  
C        C      0.619900000000     0.537100000000     0.664000000000     0.0723534  
C        C      0.476100000000     0.460600000000     0.613200000000     0.0723534  
C        C      0.371900000000     0.511300000000     0.591800000000     0.0723534  
C        C      0.406200000000     0.633000000000     0.623100000000     0.0723534  
C        C      0.546700000000     0.706700000000     0.676100000000     0.0723534  
N        N      0.274600000000     0.961000000000     0.014200000000    -0.142536   
N        N      0.134100000000     0.885400000000     0.958500000000    -0.142536   
N        N      0.092900000000     0.930800000000     0.093800000000    -0.142536   
N        N      0.877700000000     0.985200000000     0.271500000000    -0.142536   
N        N      0.816000000000     0.067800000000     0.251400000000    -0.142536   
N        N      0.698200000000     0.963200000000     0.349600000000    -0.142536   
N        N      0.381900000000     0.938100000000     0.393900000000    -0.142536   
N        N      0.345700000000     0.023800000000     0.441900000000    -0.142536   
N        N      0.182200000000     0.948400000000     0.310600000000    -0.142536   
N        N      0.725400000000     0.039000000000     0.985800000000    -0.142536   
N        N      0.865900000000     0.114600000000     0.041500000000    -0.142536   
N        N      0.907100000000     0.069200000000     0.906200000000    -0.142536   
N        N      0.122300000000     0.014800000000     0.728500000000    -0.142536   
N        N      0.184000000000     0.932200000000     0.748600000000    -0.142536   
N        N      0.301800000000     0.036800000000     0.650400000000    -0.142536   
N        N      0.618100000000     0.061900000000     0.606100000000    -0.142536   
N        N      0.654300000000     0.976200000000     0.558100000000    -0.142536   
N        N      0.817800000000     0.051600000000     0.689400000000    -0.142536   
O        O      0.572400000000     0.156300000000     0.111200000000    -0.27898    
O        O      0.800200000000     0.307500000000     0.167600000000    -0.27898    
O        O      0.891800000000     0.743200000000     0.196900000000    -0.27898    
O        O      0.727900000000     0.791300000000     0.108500000000    -0.27898    
O        O      0.157300000000     0.150300000000     0.217400000000    -0.27898    
O        O      0.095900000000     0.309500000000     0.227400000000    -0.27898    
O        O      0.460700000000     0.711700000000     0.394700000000    -0.27898    
O        O      0.693800000000     0.744200000000     0.460300000000    -0.27898    
O        O      0.427600000000     0.843700000000     0.888800000000    -0.27898    
O        O      0.199800000000     0.692500000000     0.832400000000    -0.27898    
O        O      0.108200000000     0.256800000000     0.803100000000    -0.27898    
O        O      0.272100000000     0.208700000000     0.891500000000    -0.27898    
O        O      0.842700000000     0.849700000000     0.782600000000    -0.27898    
O        O      0.904100000000     0.690500000000     0.772600000000    -0.27898    
O        O      0.539300000000     0.288300000000     0.605300000000    -0.27898    
O        O      0.306200000000     0.255800000000     0.539700000000    -0.27898    


