data_XUYXAR_original

_audit_creation_method RASPA-1.0
_audit_creation_date 2022-1-29
_audit_author_name 'Felipe Lopes de Oliveira <felipe.lopes.oliveira@ibm.com>'

_cell_length_a    8.2087
_cell_length_b    14.9912
_cell_length_c    21.9789
_cell_angle_alpha 90
_cell_angle_beta  94.702
_cell_angle_gamma 90
_cell_volume      2695.58

_symmetry_cell_setting          triclinic
_symmetry_space_group_name_Hall 'P 1'
_symmetry_space_group_name_H-M  'P 1'
_symmetry_Int_Tables_number     1

_symmetry_equiv_pos_as_xyz 'x,y,z'

loop_
_atom_site_label
_atom_site_type_symbol
_atom_site_fract_x
_atom_site_fract_y
_atom_site_fract_z
_atom_site_charge
Zn       Zn     0.325640000000     0.080910000000     0.135060000000     0.474703   
Zn       Zn     0.533620000000     0.232760000000     0.242830000000     0.474703   
Zn       Zn     0.174360000000     0.580910000000     0.364940000000     0.474703   
Zn       Zn     0.966380000000     0.732760000000     0.257170000000     0.474703   
Zn       Zn     0.674360000000     0.919090000000     0.864940000000     0.474703   
Zn       Zn     0.466380000000     0.767240000000     0.757170000000     0.474703   
Zn       Zn     0.825640000000     0.419090000000     0.635060000000     0.474703   
Zn       Zn     0.033620000000     0.267240000000     0.742830000000     0.474703   
H        H      0.354300000000     0.876600000000     0.253900000000     0.0536679  
H        H      0.748000000000     0.881300000000     0.414900000000     0.0536679  
H        H      0.704700000000     0.006000000000     0.355100000000     0.0536679  
H        H      0.875600000000     0.584000000000     0.467200000000     0.0536679  
H        H      0.464400000000     0.649700000000     0.542300000000     0.0536679  
H        H      0.404600000000     0.752300000000     0.466100000000     0.0536679  
H        H      0.405000000000     0.382800000000     0.149000000000     0.0536679  
H        H      0.387300000000     0.536700000000     0.145400000000     0.0536679  
H        H      0.496300000000     0.619600000000     0.227900000000     0.0536679  
H        H      0.626900000000     0.547900000000     0.310200000000     0.0536679  
H        H      0.784800000000     0.471600000000     0.376600000000     0.0536679  
H        H      0.913800000000     0.384200000000     0.450300000000     0.0536679  
H        H      0.893600000000     0.232500000000     0.442100000000     0.0536679  
H        H      0.739100000000     0.170400000000     0.361300000000     0.0536679  
H        H      0.145700000000     0.376600000000     0.246100000000     0.0536679  
H        H      0.752000000000     0.381300000000     0.085100000000     0.0536679  
H        H      0.795300000000     0.506000000000     0.144900000000     0.0536679  
H        H      0.624400000000     0.084000000000     0.032800000000     0.0536679  
H        H      0.035600000000     0.149700000000     0.957700000000     0.0536679  
H        H      0.095400000000     0.252300000000     0.033900000000     0.0536679  
H        H      0.095000000000     0.882800000000     0.351000000000     0.0536679  
H        H      0.112700000000     0.036700000000     0.354600000000     0.0536679  
H        H      0.003700000000     0.119600000000     0.272100000000     0.0536679  
H        H      0.873100000000     0.047900000000     0.189800000000     0.0536679  
H        H      0.715200000000     0.971600000000     0.123400000000     0.0536679  
H        H      0.586200000000     0.884200000000     0.049700000000     0.0536679  
H        H      0.606400000000     0.732500000000     0.057900000000     0.0536679  
H        H      0.760900000000     0.670400000000     0.138700000000     0.0536679  
H        H      0.645700000000     0.123400000000     0.746100000000     0.0536679  
H        H      0.252000000000     0.118700000000     0.585100000000     0.0536679  
H        H      0.295300000000     0.994000000000     0.644900000000     0.0536679  
H        H      0.124400000000     0.416000000000     0.532800000000     0.0536679  
H        H      0.535600000000     0.350300000000     0.457700000000     0.0536679  
H        H      0.595400000000     0.247700000000     0.533900000000     0.0536679  
H        H      0.595000000000     0.617200000000     0.851000000000     0.0536679  
H        H      0.612700000000     0.463300000000     0.854600000000     0.0536679  
H        H      0.503700000000     0.380400000000     0.772100000000     0.0536679  
H        H      0.373100000000     0.452100000000     0.689800000000     0.0536679  
H        H      0.215200000000     0.528400000000     0.623400000000     0.0536679  
H        H      0.086200000000     0.615800000000     0.549700000000     0.0536679  
H        H      0.106400000000     0.767500000000     0.557900000000     0.0536679  
H        H      0.260900000000     0.829600000000     0.638700000000     0.0536679  
H        H      0.854300000000     0.623400000000     0.753900000000     0.0536679  
H        H      0.248000000000     0.618700000000     0.914900000000     0.0536679  
H        H      0.204700000000     0.494000000000     0.855100000000     0.0536679  
H        H      0.375600000000     0.916000000000     0.967200000000     0.0536679  
H        H      0.964400000000     0.850300000000     0.042300000000     0.0536679  
H        H      0.904600000000     0.747700000000     0.966100000000     0.0536679  
H        H      0.905000000000     0.117200000000     0.649000000000     0.0536679  
H        H      0.887300000000     0.963300000000     0.645400000000     0.0536679  
H        H      0.996300000000     0.880400000000     0.727900000000     0.0536679  
H        H      0.126900000000     0.952100000000     0.810200000000     0.0536679  
H        H      0.284800000000     0.028400000000     0.876600000000     0.0536679  
H        H      0.413800000000     0.115800000000     0.950300000000     0.0536679  
H        H      0.393600000000     0.267500000000     0.942100000000     0.0536679  
H        H      0.239100000000     0.329600000000     0.861300000000     0.0536679  
C        C      0.497000000000     0.034200000000     0.257150000000     0.0374151  
C        C      0.526000000000     0.953900000000     0.297650000000     0.0374151  
C        C      0.431300000000     0.878200000000     0.287380000000     0.0374151  
C        C      0.447800000000     0.804400000000     0.325580000000     0.0374151  
C        C      0.569400000000     0.804700000000     0.374430000000     0.0374151  
C        C      0.665400000000     0.880700000000     0.383280000000     0.0374151  
C        C      0.642100000000     0.955100000000     0.346680000000     0.0374151  
C        C      0.328500000000     0.728800000000     0.314570000000     0.0374151  
C        C      0.603000000000     0.730900000000     0.419450000000     0.0374151  
C        C      0.745700000000     0.680200000000     0.420580000000     0.0374151  
C        C      0.864300000000     0.688400000000     0.372520000000     0.0374151  
C        C      0.780600000000     0.617900000000     0.466890000000     0.0374151  
C        C      0.676000000000     0.605700000000     0.512400000000     0.0374151  
C        C      0.535200000000     0.656900000000     0.511680000000     0.0374151  
C        C      0.499500000000     0.718400000000     0.465950000000     0.0374151  
C        C      0.715900000000     0.539600000000     0.562920000000     0.0374151  
C        C      0.451600000000     0.416300000000     0.181500000000     0.0374151  
C        C      0.439200000000     0.508500000000     0.179300000000     0.0374151  
C        C      0.505000000000     0.557700000000     0.228200000000     0.0374151  
C        C      0.582600000000     0.515400000000     0.276800000000     0.0374151  
C        C      0.595400000000     0.422500000000     0.276200000000     0.0374151  
C        C      0.682400000000     0.371300000000     0.325400000000     0.0374151  
C        C      0.775600000000     0.409800000000     0.374000000000     0.0374151  
C        C      0.852500000000     0.358400000000     0.417400000000     0.0374151  
C        C      0.839900000000     0.269000000000     0.412700000000     0.0374151  
C        C      0.746900000000     0.232200000000     0.364100000000     0.0374151  
C        C      0.003000000000     0.534200000000     0.242850000000     0.0374151  
C        C      0.974000000000     0.453900000000     0.202350000000     0.0374151  
C        C      0.068700000000     0.378200000000     0.212620000000     0.0374151  
C        C      0.052200000000     0.304400000000     0.174420000000     0.0374151  
C        C      0.930600000000     0.304700000000     0.125570000000     0.0374151  
C        C      0.834600000000     0.380700000000     0.116720000000     0.0374151  
C        C      0.857900000000     0.455100000000     0.153320000000     0.0374151  
C        C      0.171500000000     0.228800000000     0.185430000000     0.0374151  
C        C      0.897000000000     0.230900000000     0.080550000000     0.0374151  
C        C      0.754300000000     0.180200000000     0.079420000000     0.0374151  
C        C      0.635700000000     0.188400000000     0.127480000000     0.0374151  
C        C      0.719400000000     0.117900000000     0.033110000000     0.0374151  
C        C      0.824000000000     0.105700000000     0.987600000000     0.0374151  
C        C      0.964800000000     0.156900000000     0.988320000000     0.0374151  
C        C      0.000500000000     0.218400000000     0.034050000000     0.0374151  
C        C      0.784100000000     0.039600000000     0.937080000000     0.0374151  
C        C      0.048400000000     0.916300000000     0.318500000000     0.0374151  
C        C      0.060800000000     0.008500000000     0.320700000000     0.0374151  
C        C      0.995000000000     0.057700000000     0.271800000000     0.0374151  
C        C      0.917400000000     0.015400000000     0.223200000000     0.0374151  
C        C      0.904600000000     0.922500000000     0.223800000000     0.0374151  
C        C      0.817600000000     0.871300000000     0.174600000000     0.0374151  
C        C      0.724400000000     0.909800000000     0.126000000000     0.0374151  
C        C      0.647500000000     0.858400000000     0.082600000000     0.0374151  
C        C      0.660100000000     0.769000000000     0.087300000000     0.0374151  
C        C      0.753100000000     0.732200000000     0.135900000000     0.0374151  
C        C      0.503000000000     0.965800000000     0.742850000000     0.0374151  
C        C      0.474000000000     0.046100000000     0.702350000000     0.0374151  
C        C      0.568700000000     0.121800000000     0.712620000000     0.0374151  
C        C      0.552200000000     0.195600000000     0.674420000000     0.0374151  
C        C      0.430600000000     0.195300000000     0.625570000000     0.0374151  
C        C      0.334600000000     0.119300000000     0.616720000000     0.0374151  
C        C      0.357900000000     0.044900000000     0.653320000000     0.0374151  
C        C      0.671500000000     0.271200000000     0.685430000000     0.0374151  
C        C      0.397000000000     0.269100000000     0.580550000000     0.0374151  
C        C      0.254300000000     0.319800000000     0.579420000000     0.0374151  
C        C      0.135700000000     0.311600000000     0.627480000000     0.0374151  
C        C      0.219400000000     0.382100000000     0.533110000000     0.0374151  
C        C      0.324000000000     0.394300000000     0.487600000000     0.0374151  
C        C      0.464800000000     0.343100000000     0.488320000000     0.0374151  
C        C      0.500500000000     0.281600000000     0.534050000000     0.0374151  
C        C      0.284100000000     0.460400000000     0.437080000000     0.0374151  
C        C      0.548400000000     0.583700000000     0.818500000000     0.0374151  
C        C      0.560800000000     0.491500000000     0.820700000000     0.0374151  
C        C      0.495000000000     0.442300000000     0.771800000000     0.0374151  
C        C      0.417400000000     0.484600000000     0.723200000000     0.0374151  
C        C      0.404600000000     0.577500000000     0.723800000000     0.0374151  
C        C      0.317600000000     0.628700000000     0.674600000000     0.0374151  
C        C      0.224400000000     0.590200000000     0.626000000000     0.0374151  
C        C      0.147500000000     0.641600000000     0.582600000000     0.0374151  
C        C      0.160100000000     0.731000000000     0.587300000000     0.0374151  
C        C      0.253100000000     0.767800000000     0.635900000000     0.0374151  
C        C      0.997000000000     0.465800000000     0.757150000000     0.0374151  
C        C      0.026000000000     0.546100000000     0.797650000000     0.0374151  
C        C      0.931300000000     0.621800000000     0.787380000000     0.0374151  
C        C      0.947800000000     0.695600000000     0.825580000000     0.0374151  
C        C      0.069400000000     0.695300000000     0.874430000000     0.0374151  
C        C      0.165400000000     0.619300000000     0.883280000000     0.0374151  
C        C      0.142100000000     0.544900000000     0.846680000000     0.0374151  
C        C      0.828500000000     0.771200000000     0.814570000000     0.0374151  
C        C      0.103000000000     0.769100000000     0.919450000000     0.0374151  
C        C      0.245700000000     0.819800000000     0.920580000000     0.0374151  
C        C      0.364300000000     0.811600000000     0.872520000000     0.0374151  
C        C      0.280600000000     0.882100000000     0.966890000000     0.0374151  
C        C      0.176000000000     0.894300000000     0.012400000000     0.0374151  
C        C      0.035200000000     0.843100000000     0.011680000000     0.0374151  
C        C      0.999500000000     0.781600000000     0.965950000000     0.0374151  
C        C      0.215900000000     0.960400000000     0.062920000000     0.0374151  
C        C      0.951600000000     0.083700000000     0.681500000000     0.0374151  
C        C      0.939200000000     0.991500000000     0.679300000000     0.0374151  
C        C      0.005000000000     0.942300000000     0.728200000000     0.0374151  
C        C      0.082600000000     0.984600000000     0.776800000000     0.0374151  
C        C      0.095400000000     0.077500000000     0.776200000000     0.0374151  
C        C      0.182400000000     0.128700000000     0.825400000000     0.0374151  
C        C      0.275600000000     0.090200000000     0.874000000000     0.0374151  
C        C      0.352500000000     0.141600000000     0.917400000000     0.0374151  
C        C      0.339900000000     0.231000000000     0.912700000000     0.0374151  
C        C      0.246900000000     0.267800000000     0.864100000000     0.0374151  
N        N      0.528200000000     0.374500000000     0.228970000000    -0.15552    
N        N      0.667900000000     0.282000000000     0.321040000000    -0.15552    
N        N      0.971800000000     0.874500000000     0.271030000000    -0.15552    
N        N      0.832100000000     0.782000000000     0.178960000000    -0.15552    
N        N      0.471800000000     0.625500000000     0.771030000000    -0.15552    
N        N      0.332100000000     0.718000000000     0.678960000000    -0.15552    
N        N      0.028200000000     0.125500000000     0.728970000000    -0.15552    
N        N      0.167900000000     0.218000000000     0.821040000000    -0.15552    
O        O      0.537400000000     0.108070000000     0.279250000000    -0.295314   
O        O      0.434100000000     0.018460000000     0.204070000000    -0.295314   
O        O      0.350100000000     0.660860000000     0.347150000000    -0.295314   
O        O      0.214700000000     0.738780000000     0.273250000000    -0.295314   
O        O      0.808100000000     0.707830000000     0.319160000000    -0.295314   
O        O      0.013600000000     0.675710000000     0.387960000000    -0.295314   
O        O      0.831800000000     0.485220000000     0.557370000000    -0.295314   
O        O      0.639700000000     0.540400000000     0.609090000000    -0.295314   
O        O      0.962600000000     0.608070000000     0.220750000000    -0.295314   
O        O      0.065900000000     0.518460000000     0.295930000000    -0.295314   
O        O      0.149900000000     0.160860000000     0.152850000000    -0.295314   
O        O      0.285300000000     0.238780000000     0.226750000000    -0.295314   
O        O      0.691900000000     0.207830000000     0.180840000000    -0.295314   
O        O      0.486400000000     0.175710000000     0.112040000000    -0.295314   
O        O      0.668200000000     0.985220000000     0.942630000000    -0.295314   
O        O      0.860300000000     0.040400000000     0.890910000000    -0.295314   
O        O      0.462600000000     0.891930000000     0.720750000000    -0.295314   
O        O      0.565900000000     0.981540000000     0.795930000000    -0.295314   
O        O      0.649900000000     0.339140000000     0.652850000000    -0.295314   
O        O      0.785300000000     0.261220000000     0.726750000000    -0.295314   
O        O      0.191900000000     0.292170000000     0.680840000000    -0.295314   
O        O      0.986400000000     0.324290000000     0.612040000000    -0.295314   
O        O      0.168200000000     0.514780000000     0.442630000000    -0.295314   
O        O      0.360300000000     0.459600000000     0.390910000000    -0.295314   
O        O      0.037400000000     0.391930000000     0.779250000000    -0.295314   
O        O      0.934100000000     0.481540000000     0.704070000000    -0.295314   
O        O      0.850100000000     0.839140000000     0.847150000000    -0.295314   
O        O      0.714700000000     0.761220000000     0.773250000000    -0.295314   
O        O      0.308100000000     0.792170000000     0.819160000000    -0.295314   
O        O      0.513600000000     0.824290000000     0.887960000000    -0.295314   
O        O      0.331800000000     0.014780000000     0.057370000000    -0.295314   
O        O      0.139700000000     0.959600000000     0.109090000000    -0.295314   


