data_YARKAF_original

_audit_creation_method RASPA-1.0
_audit_creation_date 2022-1-29
_audit_author_name 'Felipe Lopes de Oliveira <felipe.lopes.oliveira@ibm.com>'

_cell_length_a    13.8606
_cell_length_b    16.9142
_cell_length_c    18.1588
_cell_angle_alpha 112.895
_cell_angle_beta  96.84
_cell_angle_gamma 101.84
_cell_volume      3743.76

_symmetry_cell_setting          triclinic
_symmetry_space_group_name_Hall 'P 1'
_symmetry_space_group_name_H-M  'P 1'
_symmetry_Int_Tables_number     1

_symmetry_equiv_pos_as_xyz 'x,y,z'

loop_
_atom_site_label
_atom_site_type_symbol
_atom_site_fract_x
_atom_site_fract_y
_atom_site_fract_z
_atom_site_charge
Zn       Zn     0.161130000000     0.346620000000     0.851790000000     0.424688   
Zn       Zn     0.821460000000     0.149010000000     0.153180000000     0.424688   
Zn       Zn     0.141190000000     0.927690000000     0.598500000000     0.424688   
Zn       Zn     0.149960000000     0.413670000000     0.603650000000     0.424688   
Zn       Zn     0.838870000000     0.653380000000     0.148210000000     0.424688   
Zn       Zn     0.178540000000     0.850990000000     0.846820000000     0.424688   
Zn       Zn     0.858810000000     0.072310000000     0.401500000000     0.424688   
Zn       Zn     0.850040000000     0.586330000000     0.396350000000     0.424688   
H        H      0.819100000000     0.385500000000     0.844900000000     0.0749898  
H        H      0.637500000000     0.327900000000     0.632200000000     0.0749898  
H        H      0.774500000000     0.331500000000     0.571500000000     0.0749898  
H        H      0.463200000000     0.374300000000     0.795100000000     0.0749898  
H        H      0.610900000000     0.192400000000     0.698500000000     0.0749898  
H        H      0.461600000000     0.081300000000     0.654500000000     0.0749898  
H        H      0.514500000000     0.144300000000     0.206400000000     0.0749898  
H        H      0.371200000000     0.334800000000     0.255300000000     0.0749898  
H        H      0.524300000000     0.441600000000     0.300000000000     0.0749898  
H        H      0.152100000000     0.121900000000     0.147200000000     0.0749898  
H        H      0.363700000000     0.197900000000     0.350000000000     0.0749898  
H        H      0.238600000000     0.177800000000     0.419800000000     0.0749898  
H        H      0.208500000000     0.242500000000     0.948300000000     0.0749898  
H        H      0.197700000000     0.239700000000     0.071500000000     0.0749898  
H        H      0.040300000000     0.417800000000     0.111600000000     0.0749898  
H        H      0.055200000000     0.418300000000     0.987400000000     0.0749898  
H        H      0.267400000000     0.417800000000     0.483800000000     0.0749898  
H        H      0.257000000000     0.416500000000     0.355900000000     0.0749898  
H        H      0.970600000000     0.397600000000     0.337900000000     0.0749898  
H        H      0.985300000000     0.399600000000     0.465500000000     0.0749898  
H        H      0.161200000000     0.306200000000     0.205300000000     0.0749898  
H        H      0.044000000000     0.286300000000     0.180100000000     0.0749898  
H        H      0.172500000000     0.457200000000     0.257200000000     0.0749898  
H        H      0.054100000000     0.432200000000     0.239000000000     0.0749898  
H        H      0.214200000000     0.501400000000     0.812400000000     0.0749898  
H        H      0.323600000000     0.640100000000     0.861100000000     0.0749898  
H        H      0.425100000000     0.611600000000     0.060500000000     0.0749898  
H        H      0.321000000000     0.470100000000     0.001800000000     0.0749898  
H        H      0.775700000000     0.996700000000     0.196500000000     0.0749898  
H        H      0.670700000000     0.855800000000     0.149500000000     0.0749898  
H        H      0.555800000000     0.885200000000     0.951800000000     0.0749898  
H        H      0.653900000000     0.028300000000     0.011100000000     0.0749898  
H        H      0.439700000000     0.772700000000     0.068300000000     0.0749898  
H        H      0.415400000000     0.782000000000     0.985000000000     0.0749898  
H        H      0.571000000000     0.715100000000     0.027400000000     0.0749898  
H        H      0.546700000000     0.724400000000     0.944200000000     0.0749898  
H        H      0.784100000000     0.255300000000     0.059900000000     0.0749898  
H        H      0.796900000000     0.261000000000     0.938400000000     0.0749898  
H        H      0.946300000000     0.075200000000     0.893900000000     0.0749898  
H        H      0.922600000000     0.070100000000     0.015700000000     0.0749898  
H        H      0.721500000000     0.057100000000     0.505600000000     0.0749898  
H        H      0.718900000000     0.059500000000     0.632300000000     0.0749898  
H        H      0.018300000000     0.111000000000     0.679800000000     0.0749898  
H        H      0.015500000000     0.109000000000     0.553400000000     0.0749898  
H        H      0.829600000000     0.192900000000     0.802900000000     0.0749898  
H        H      0.946100000000     0.205500000000     0.824700000000     0.0749898  
H        H      0.805200000000     0.040100000000     0.749800000000     0.0749898  
H        H      0.922800000000     0.056700000000     0.765800000000     0.0749898  
H        H      0.180900000000     0.614500000000     0.155100000000     0.0749898  
H        H      0.362500000000     0.672100000000     0.367800000000     0.0749898  
H        H      0.225500000000     0.668500000000     0.428500000000     0.0749898  
H        H      0.536800000000     0.625700000000     0.204900000000     0.0749898  
H        H      0.389100000000     0.807600000000     0.301500000000     0.0749898  
H        H      0.538400000000     0.918700000000     0.345500000000     0.0749898  
H        H      0.485500000000     0.855700000000     0.793600000000     0.0749898  
H        H      0.628800000000     0.665200000000     0.744700000000     0.0749898  
H        H      0.475700000000     0.558400000000     0.700000000000     0.0749898  
H        H      0.847900000000     0.878100000000     0.852800000000     0.0749898  
H        H      0.636300000000     0.802100000000     0.650000000000     0.0749898  
H        H      0.761400000000     0.822200000000     0.580200000000     0.0749898  
H        H      0.791500000000     0.757500000000     0.051700000000     0.0749898  
H        H      0.802300000000     0.760300000000     0.928500000000     0.0749898  
H        H      0.959700000000     0.582200000000     0.888400000000     0.0749898  
H        H      0.944800000000     0.581700000000     0.012600000000     0.0749898  
H        H      0.732600000000     0.582200000000     0.516200000000     0.0749898  
H        H      0.743000000000     0.583500000000     0.644100000000     0.0749898  
H        H      0.029400000000     0.602400000000     0.662100000000     0.0749898  
H        H      0.014700000000     0.600400000000     0.534500000000     0.0749898  
H        H      0.838800000000     0.693800000000     0.794700000000     0.0749898  
H        H      0.956000000000     0.713700000000     0.819900000000     0.0749898  
H        H      0.827500000000     0.542800000000     0.742800000000     0.0749898  
H        H      0.945900000000     0.567800000000     0.761000000000     0.0749898  
H        H      0.785800000000     0.498600000000     0.187600000000     0.0749898  
H        H      0.676400000000     0.359900000000     0.138900000000     0.0749898  
H        H      0.574900000000     0.388400000000     0.939500000000     0.0749898  
H        H      0.679000000000     0.529900000000     0.998200000000     0.0749898  
H        H      0.224300000000     0.003300000000     0.803500000000     0.0749898  
H        H      0.329300000000     0.144200000000     0.850500000000     0.0749898  
H        H      0.444200000000     0.114800000000     0.048200000000     0.0749898  
H        H      0.346100000000     0.971700000000     0.988900000000     0.0749898  
H        H      0.560300000000     0.227300000000     0.931700000000     0.0749898  
H        H      0.584600000000     0.218000000000     0.015000000000     0.0749898  
H        H      0.429000000000     0.284900000000     0.972600000000     0.0749898  
H        H      0.453300000000     0.275600000000     0.055800000000     0.0749898  
H        H      0.215900000000     0.744700000000     0.940100000000     0.0749898  
H        H      0.203100000000     0.739000000000     0.061600000000     0.0749898  
H        H      0.053700000000     0.924800000000     0.106100000000     0.0749898  
H        H      0.077400000000     0.929900000000     0.984300000000     0.0749898  
H        H      0.278500000000     0.942900000000     0.494400000000     0.0749898  
H        H      0.281100000000     0.940500000000     0.367700000000     0.0749898  
H        H      0.981700000000     0.889000000000     0.320200000000     0.0749898  
H        H      0.984500000000     0.891000000000     0.446600000000     0.0749898  
H        H      0.170400000000     0.807100000000     0.197100000000     0.0749898  
H        H      0.053900000000     0.794500000000     0.175300000000     0.0749898  
H        H      0.194800000000     0.959900000000     0.250200000000     0.0749898  
H        H      0.077200000000     0.943300000000     0.234200000000     0.0749898  
C        C      0.881800000000     0.357100000000     0.670300000000     0.0109328  
C        C      0.894300000000     0.373200000000     0.752800000000     0.0109328  
C        C      0.810800000000     0.373900000000     0.789700000000     0.0109328  
C        C      0.717200000000     0.357400000000     0.743700000000     0.0109328  
C        C      0.702100000000     0.340200000000     0.662500000000     0.0109328  
C        C      0.784100000000     0.341400000000     0.626300000000     0.0109328  
C        C      0.967600000000     0.364700000000     0.629300000000     0.0109328  
C        C      0.993700000000     0.386200000000     0.805600000000     0.0109328  
C        C      0.370900000000     0.160500000000     0.700200000000     0.0109328  
C        C      0.373300000000     0.248100000000     0.741400000000     0.0109328  
C        C      0.462900000000     0.315100000000     0.767100000000     0.0109328  
C        C      0.551200000000     0.294400000000     0.751600000000     0.0109328  
C        C      0.551200000000     0.206600000000     0.709300000000     0.0109328  
C        C      0.462000000000     0.140400000000     0.683500000000     0.0109328  
C        C      0.273600000000     0.087600000000     0.668500000000     0.0109328  
C        C      0.281700000000     0.277700000000     0.765200000000     0.0109328  
C        C      0.613600000000     0.357500000000     0.281100000000     0.0109328  
C        C      0.609400000000     0.269200000000     0.253100000000     0.0109328  
C        C      0.516500000000     0.204300000000     0.225600000000     0.0109328  
C        C      0.428800000000     0.229000000000     0.227000000000     0.0109328  
C        C      0.431100000000     0.318000000000     0.254700000000     0.0109328  
C        C      0.522700000000     0.381700000000     0.281400000000     0.0109328  
C        C      0.711300000000     0.428300000000     0.319100000000     0.0109328  
C        C      0.701300000000     0.234000000000     0.243100000000     0.0109328  
C        C      0.117500000000     0.141700000000     0.327500000000     0.0109328  
C        C      0.092900000000     0.126200000000     0.245200000000     0.0109328  
C        C      0.169100000000     0.134300000000     0.202400000000     0.0109328  
C        C      0.269300000000     0.160500000000     0.241900000000     0.0109328  
C        C      0.295900000000     0.178600000000     0.323300000000     0.0109328  
C        C      0.220500000000     0.167600000000     0.365200000000     0.0109328  
C        C      0.039600000000     0.124700000000     0.373400000000     0.0109328  
C        C      0.988200000000     0.107400000000     0.198200000000     0.0109328  
C        C      0.174700000000     0.278900000000     0.981800000000     0.0109328  
C        C      0.168000000000     0.276800000000     0.055600000000     0.0109328  
C        C      0.117400000000     0.329100000000     0.106600000000     0.0109328  
C        C      0.075500000000     0.381700000000     0.079400000000     0.0109328  
C        C      0.084700000000     0.381800000000     0.004400000000     0.0109328  
C        C      0.205300000000     0.414800000000     0.455400000000     0.0109328  
C        C      0.199400000000     0.413900000000     0.377400000000     0.0109328  
C        C      0.114300000000     0.409400000000     0.334600000000     0.0109328  
C        C      0.033400000000     0.402900000000     0.367000000000     0.0109328  
C        C      0.043200000000     0.404200000000     0.444500000000     0.0109328  
C        C      0.107800000000     0.328300000000     0.187800000000     0.0109328  
C        C      0.112300000000     0.413100000000     0.252800000000     0.0109328  
C        C      0.259600000000     0.523200000000     0.862300000000     0.0109328  
C        C      0.324800000000     0.607600000000     0.892200000000     0.0109328  
C        C      0.388800000000     0.643400000000     0.964000000000     0.0109328  
C        C      0.384600000000     0.589500000000     0.008300000000     0.0109328  
C        C      0.320700000000     0.505400000000     0.973200000000     0.0109328  
C        C      0.727200000000     0.974600000000     0.148100000000     0.0109328  
C        C      0.665600000000     0.888800000000     0.119200000000     0.0109328  
C        C      0.598800000000     0.853100000000     0.048000000000     0.0109328  
C        C      0.597400000000     0.907900000000     0.003600000000     0.0109328  
C        C      0.657400000000     0.992400000000     0.038700000000     0.0109328  
C        C      0.443400000000     0.748800000000     0.011000000000     0.0109328  
C        C      0.543200000000     0.748400000000     0.001500000000     0.0109328  
C        C      0.815700000000     0.217300000000     0.025400000000     0.0109328  
C        C      0.823700000000     0.221500000000     0.952800000000     0.0109328  
C        C      0.871800000000     0.166600000000     0.900200000000     0.0109328  
C        C      0.911000000000     0.111300000000     0.925800000000     0.0109328  
C        C      0.897700000000     0.109500000000     0.000100000000     0.0109328  
C        C      0.781700000000     0.066700000000     0.540600000000     0.0109328  
C        C      0.780200000000     0.068300000000     0.616600000000     0.0109328  
C        C      0.867600000000     0.082700000000     0.669800000000     0.0109328  
C        C      0.956900000000     0.098900000000     0.645000000000     0.0109328  
C        C      0.954600000000     0.097000000000     0.568900000000     0.0109328  
C        C      0.880300000000     0.167100000000     0.818600000000     0.0109328  
C        C      0.868200000000     0.080300000000     0.753000000000     0.0109328  
C        C      0.118200000000     0.642900000000     0.329700000000     0.0109328  
C        C      0.105700000000     0.626800000000     0.247200000000     0.0109328  
C        C      0.189200000000     0.626100000000     0.210300000000     0.0109328  
C        C      0.282800000000     0.642600000000     0.256300000000     0.0109328  
C        C      0.297900000000     0.659800000000     0.337500000000     0.0109328  
C        C      0.215900000000     0.658600000000     0.373700000000     0.0109328  
C        C      0.032400000000     0.635300000000     0.370700000000     0.0109328  
C        C      0.006300000000     0.613800000000     0.194400000000     0.0109328  
C        C      0.629100000000     0.839500000000     0.299800000000     0.0109328  
C        C      0.626700000000     0.751900000000     0.258600000000     0.0109328  
C        C      0.537100000000     0.684900000000     0.232900000000     0.0109328  
C        C      0.448800000000     0.705600000000     0.248400000000     0.0109328  
C        C      0.448800000000     0.793400000000     0.290700000000     0.0109328  
C        C      0.538000000000     0.859600000000     0.316500000000     0.0109328  
C        C      0.726400000000     0.912400000000     0.331500000000     0.0109328  
C        C      0.718300000000     0.722300000000     0.234800000000     0.0109328  
C        C      0.386400000000     0.642500000000     0.718900000000     0.0109328  
C        C      0.390600000000     0.730800000000     0.746900000000     0.0109328  
C        C      0.483500000000     0.795700000000     0.774400000000     0.0109328  
C        C      0.571200000000     0.771000000000     0.773000000000     0.0109328  
C        C      0.568900000000     0.682000000000     0.745300000000     0.0109328  
C        C      0.477300000000     0.618300000000     0.718600000000     0.0109328  
C        C      0.288700000000     0.571700000000     0.680900000000     0.0109328  
C        C      0.298700000000     0.766000000000     0.756900000000     0.0109328  
C        C      0.882500000000     0.858300000000     0.672500000000     0.0109328  
C        C      0.907100000000     0.873800000000     0.754800000000     0.0109328  
C        C      0.830900000000     0.865700000000     0.797600000000     0.0109328  
C        C      0.730700000000     0.839500000000     0.758100000000     0.0109328  
C        C      0.704100000000     0.821400000000     0.676700000000     0.0109328  
C        C      0.779500000000     0.832400000000     0.634800000000     0.0109328  
C        C      0.960400000000     0.875300000000     0.626600000000     0.0109328  
C        C      0.011800000000     0.892600000000     0.801800000000     0.0109328  
C        C      0.825300000000     0.721100000000     0.018200000000     0.0109328  
C        C      0.832000000000     0.723200000000     0.944400000000     0.0109328  
C        C      0.882600000000     0.670900000000     0.893400000000     0.0109328  
C        C      0.924500000000     0.618300000000     0.920600000000     0.0109328  
C        C      0.915300000000     0.618200000000     0.995600000000     0.0109328  
C        C      0.794700000000     0.585200000000     0.544600000000     0.0109328  
C        C      0.800600000000     0.586100000000     0.622600000000     0.0109328  
C        C      0.885700000000     0.590600000000     0.665400000000     0.0109328  
C        C      0.966600000000     0.597100000000     0.633000000000     0.0109328  
C        C      0.956800000000     0.595800000000     0.555500000000     0.0109328  
C        C      0.892200000000     0.671700000000     0.812200000000     0.0109328  
C        C      0.887700000000     0.586900000000     0.747200000000     0.0109328  
C        C      0.740400000000     0.476800000000     0.137700000000     0.0109328  
C        C      0.675200000000     0.392400000000     0.107800000000     0.0109328  
C        C      0.611200000000     0.356600000000     0.036000000000     0.0109328  
C        C      0.615400000000     0.410500000000     0.991700000000     0.0109328  
C        C      0.679300000000     0.494600000000     0.026800000000     0.0109328  
C        C      0.272800000000     0.025400000000     0.851900000000     0.0109328  
C        C      0.334400000000     0.111200000000     0.880800000000     0.0109328  
C        C      0.401200000000     0.146900000000     0.952000000000     0.0109328  
C        C      0.402600000000     0.092100000000     0.996400000000     0.0109328  
C        C      0.342600000000     0.007600000000     0.961300000000     0.0109328  
C        C      0.556600000000     0.251200000000     0.989000000000     0.0109328  
C        C      0.456800000000     0.251600000000     0.998500000000     0.0109328  
C        C      0.184300000000     0.782700000000     0.974600000000     0.0109328  
C        C      0.176300000000     0.778500000000     0.047200000000     0.0109328  
C        C      0.128200000000     0.833400000000     0.099800000000     0.0109328  
C        C      0.089000000000     0.888700000000     0.074200000000     0.0109328  
C        C      0.102300000000     0.890500000000     0.999900000000     0.0109328  
C        C      0.218300000000     0.933300000000     0.459400000000     0.0109328  
C        C      0.219800000000     0.931700000000     0.383400000000     0.0109328  
C        C      0.132400000000     0.917300000000     0.330200000000     0.0109328  
C        C      0.043100000000     0.901100000000     0.355000000000     0.0109328  
C        C      0.045400000000     0.903000000000     0.431100000000     0.0109328  
C        C      0.119700000000     0.832900000000     0.181400000000     0.0109328  
C        C      0.131800000000     0.919700000000     0.247000000000     0.0109328  
N        N      0.133700000000     0.332200000000     0.956000000000    -0.186995   
N        N      0.128600000000     0.411500000000     0.490400000000    -0.186995   
N        N      0.258900000000     0.471800000000     0.901600000000    -0.186995   
N        N      0.721100000000     0.026500000000     0.110900000000    -0.186995   
N        N      0.850800000000     0.161700000000     0.049400000000    -0.186995   
N        N      0.869500000000     0.078800000000     0.516100000000    -0.186995   
N        N      0.866300000000     0.667800000000     0.044000000000    -0.186995   
N        N      0.871400000000     0.588500000000     0.509600000000    -0.186995   
N        N      0.741100000000     0.528200000000     0.098400000000    -0.186995   
N        N      0.278900000000     0.973500000000     0.889100000000    -0.186995   
N        N      0.149200000000     0.838300000000     0.950600000000    -0.186995   
N        N      0.130500000000     0.921200000000     0.483900000000    -0.186995   
O        O      0.051600000000     0.419900000000     0.673400000000    -0.273318   
O        O      0.955300000000     0.321300000000     0.555100000000    -0.273318   
O        O      0.034700000000     0.323500000000     0.779500000000    -0.273318   
O        O      0.026100000000     0.452600000000     0.871000000000    -0.273318   
O        O      0.278700000000     0.008400000000     0.656200000000    -0.273318   
O        O      0.193200000000     0.104100000000     0.655300000000    -0.273318   
O        O      0.242000000000     0.317800000000     0.731100000000    -0.273318   
O        O      0.255300000000     0.269100000000     0.826600000000    -0.273318   
O        O      0.638200000000     0.364000000000     0.784200000000    -0.273318   
O        O      0.710800000000     0.509000000000     0.341000000000    -0.273318   
O        O      0.790900000000     0.408200000000     0.330200000000    -0.273318   
O        O      0.736400000000     0.231300000000     0.181900000000    -0.273318   
O        O      0.728000000000     0.198600000000     0.287100000000    -0.273318   
O        O      0.954000000000     0.071200000000     0.330600000000    -0.273318   
O        O      0.058600000000     0.160000000000     0.448200000000    -0.273318   
O        O      0.944900000000     0.169200000000     0.226500000000    -0.273318   
O        O      0.953700000000     0.039600000000     0.134400000000    -0.273318   
O        O      0.338100000000     0.162800000000     0.193300000000    -0.273318   
O        O      0.948400000000     0.580100000000     0.326600000000    -0.273318   
O        O      0.044700000000     0.678700000000     0.444900000000    -0.273318   
O        O      0.965300000000     0.676500000000     0.220500000000    -0.273318   
O        O      0.973900000000     0.547400000000     0.129000000000    -0.273318   
O        O      0.721300000000     0.991600000000     0.343800000000    -0.273318   
O        O      0.806800000000     0.895900000000     0.344700000000    -0.273318   
O        O      0.758000000000     0.682200000000     0.268900000000    -0.273318   
O        O      0.744700000000     0.730900000000     0.173400000000    -0.273318   
O        O      0.361800000000     0.636000000000     0.215800000000    -0.273318   
O        O      0.289200000000     0.491000000000     0.659000000000    -0.273318   
O        O      0.209100000000     0.591800000000     0.669800000000    -0.273318   
O        O      0.263600000000     0.768700000000     0.818100000000    -0.273318   
O        O      0.272000000000     0.801400000000     0.712900000000    -0.273318   
O        O      0.046000000000     0.928800000000     0.669400000000    -0.273318   
O        O      0.941400000000     0.840000000000     0.551800000000    -0.273318   
O        O      0.055100000000     0.830800000000     0.773500000000    -0.273318   
O        O      0.046300000000     0.960400000000     0.865600000000    -0.273318   
O        O      0.661900000000     0.837200000000     0.806700000000    -0.273318   


