data_YARSAN_original

_audit_creation_method RASPA-1.0
_audit_creation_date 2022-1-30
_audit_author_name 'Felipe Lopes de Oliveira <felipe.lopes.oliveira@ibm.com>'

_cell_length_a    10.302
_cell_length_b    11.876
_cell_length_c    32.266
_cell_angle_alpha 90
_cell_angle_beta  90
_cell_angle_gamma 90
_cell_volume      3947.63

_symmetry_cell_setting          triclinic
_symmetry_space_group_name_Hall 'P 1'
_symmetry_space_group_name_H-M  'P 1'
_symmetry_Int_Tables_number     1

_symmetry_equiv_pos_as_xyz 'x,y,z'

loop_
_atom_site_label
_atom_site_type_symbol
_atom_site_fract_x
_atom_site_fract_y
_atom_site_fract_z
_atom_site_charge
Zn       Zn     0.614750000000     0.832430000000     0.043710000000     0.458891   
Zn       Zn     0.876360000000     0.044930000000     0.647480000000     0.458891   
Zn       Zn     0.885250000000     0.167570000000     0.543710000000     0.458891   
Zn       Zn     0.623640000000     0.955070000000     0.147480000000     0.458891   
Zn       Zn     0.385250000000     0.332430000000     0.456290000000     0.458891   
Zn       Zn     0.123640000000     0.544930000000     0.852520000000     0.458891   
Zn       Zn     0.114750000000     0.667570000000     0.956290000000     0.458891   
Zn       Zn     0.376360000000     0.455070000000     0.352520000000     0.458891   
H        H      0.235700000000     0.918600000000     0.043000000000     0.0543642  
H        H      0.012800000000     0.919200000000     0.038800000000     0.0543642  
H        H      0.878200000000     0.804700000000     0.170900000000     0.0543642  
H        H      0.981100000000     0.744400000000     0.229400000000     0.0543642  
H        H      0.205500000000     0.726500000000     0.230500000000     0.0543642  
H        H      0.325300000000     0.780500000000     0.174700000000     0.0543642  
H        H      0.520800000000     0.234000000000     0.063500000000     0.0543642  
H        H      0.498200000000     0.410900000000     0.034100000000     0.0543642  
H        H      0.663600000000     0.655200000000     0.134800000000     0.0543642  
H        H      0.742300000000     0.631500000000     0.200300000000     0.0543642  
H        H      0.763300000000     0.453200000000     0.229100000000     0.0543642  
H        H      0.704800000000     0.298000000000     0.191700000000     0.0543642  
H        H      0.544200000000     0.064500000000     0.792800000000     0.0543642  
H        H      0.458500000000     0.998800000000     0.854700000000     0.0543642  
H        H      0.816200000000     0.956900000000     0.900000000000     0.0543642  
H        H      0.902700000000     0.022000000000     0.838600000000     0.0543642  
H        H      0.710200000000     0.985200000000     0.728000000000     0.0543642  
H        H      0.985900000000     0.210900000000     0.716300000000     0.0543642  
H        H      0.921000000000     0.211500000000     0.789100000000     0.0543642  
H        H      0.735200000000     0.916200000000     0.958700000000     0.0543642  
H        H      0.371800000000     0.841200000000     0.983200000000     0.0543642  
H        H      0.379100000000     0.909500000000     0.912000000000     0.0543642  
H        H      0.264300000000     0.081400000000     0.543000000000     0.0543642  
H        H      0.487200000000     0.080800000000     0.538800000000     0.0543642  
H        H      0.621800000000     0.195300000000     0.670900000000     0.0543642  
H        H      0.518900000000     0.255600000000     0.729400000000     0.0543642  
H        H      0.294500000000     0.273500000000     0.730500000000     0.0543642  
H        H      0.174700000000     0.219500000000     0.674700000000     0.0543642  
H        H      0.979200000000     0.766000000000     0.563500000000     0.0543642  
H        H      0.001800000000     0.589100000000     0.534100000000     0.0543642  
H        H      0.836400000000     0.344800000000     0.634800000000     0.0543642  
H        H      0.757700000000     0.368500000000     0.700300000000     0.0543642  
H        H      0.736700000000     0.546800000000     0.729100000000     0.0543642  
H        H      0.795200000000     0.702000000000     0.691700000000     0.0543642  
H        H      0.955800000000     0.935500000000     0.292800000000     0.0543642  
H        H      0.041500000000     0.001200000000     0.354700000000     0.0543642  
H        H      0.683800000000     0.043100000000     0.400000000000     0.0543642  
H        H      0.597300000000     0.978000000000     0.338600000000     0.0543642  
H        H      0.789800000000     0.014800000000     0.228000000000     0.0543642  
H        H      0.514100000000     0.789100000000     0.216300000000     0.0543642  
H        H      0.579000000000     0.788500000000     0.289100000000     0.0543642  
H        H      0.764800000000     0.083800000000     0.458700000000     0.0543642  
H        H      0.128200000000     0.158800000000     0.483200000000     0.0543642  
H        H      0.120900000000     0.090500000000     0.412000000000     0.0543642  
H        H      0.764300000000     0.418600000000     0.457000000000     0.0543642  
H        H      0.987200000000     0.419200000000     0.461200000000     0.0543642  
H        H      0.121800000000     0.304700000000     0.329100000000     0.0543642  
H        H      0.018900000000     0.244400000000     0.270600000000     0.0543642  
H        H      0.794500000000     0.226500000000     0.269500000000     0.0543642  
H        H      0.674700000000     0.280500000000     0.325300000000     0.0543642  
H        H      0.479200000000     0.734000000000     0.436500000000     0.0543642  
H        H      0.501800000000     0.910900000000     0.465900000000     0.0543642  
H        H      0.336400000000     0.155200000000     0.365200000000     0.0543642  
H        H      0.257700000000     0.131500000000     0.299700000000     0.0543642  
H        H      0.236700000000     0.953200000000     0.270900000000     0.0543642  
H        H      0.295200000000     0.798000000000     0.308300000000     0.0543642  
H        H      0.455800000000     0.564500000000     0.707200000000     0.0543642  
H        H      0.541500000000     0.498800000000     0.645300000000     0.0543642  
H        H      0.183800000000     0.456900000000     0.600000000000     0.0543642  
H        H      0.097300000000     0.522000000000     0.661400000000     0.0543642  
H        H      0.289800000000     0.485200000000     0.772000000000     0.0543642  
H        H      0.014100000000     0.710900000000     0.783700000000     0.0543642  
H        H      0.079000000000     0.711500000000     0.710900000000     0.0543642  
H        H      0.264800000000     0.416200000000     0.541300000000     0.0543642  
H        H      0.628200000000     0.341200000000     0.516800000000     0.0543642  
H        H      0.620900000000     0.409500000000     0.588000000000     0.0543642  
H        H      0.735700000000     0.581400000000     0.957000000000     0.0543642  
H        H      0.512800000000     0.580800000000     0.961200000000     0.0543642  
H        H      0.378200000000     0.695300000000     0.829100000000     0.0543642  
H        H      0.481100000000     0.755600000000     0.770600000000     0.0543642  
H        H      0.705500000000     0.773500000000     0.769500000000     0.0543642  
H        H      0.825300000000     0.719500000000     0.825300000000     0.0543642  
H        H      0.020800000000     0.266000000000     0.936500000000     0.0543642  
H        H      0.998200000000     0.089100000000     0.965900000000     0.0543642  
H        H      0.163600000000     0.844800000000     0.865200000000     0.0543642  
H        H      0.242300000000     0.868500000000     0.799700000000     0.0543642  
H        H      0.263300000000     0.046800000000     0.770900000000     0.0543642  
H        H      0.204800000000     0.202000000000     0.808300000000     0.0543642  
H        H      0.044200000000     0.435500000000     0.207200000000     0.0543642  
H        H      0.958500000000     0.501200000000     0.145300000000     0.0543642  
H        H      0.316200000000     0.543100000000     0.100000000000     0.0543642  
H        H      0.402700000000     0.478000000000     0.161400000000     0.0543642  
H        H      0.210200000000     0.514800000000     0.272000000000     0.0543642  
H        H      0.485900000000     0.289100000000     0.283700000000     0.0543642  
H        H      0.421000000000     0.288500000000     0.210900000000     0.0543642  
H        H      0.235200000000     0.583800000000     0.041300000000     0.0543642  
H        H      0.871800000000     0.658800000000     0.016800000000     0.0543642  
H        H      0.879100000000     0.590500000000     0.088000000000     0.0543642  
C        C      0.251500000000     0.868300000000     0.101870000000     0.0220074  
C        C      0.187400000000     0.898300000000     0.066150000000     0.0220074  
C        C      0.052500000000     0.899200000000     0.063630000000     0.0220074  
C        C      0.976500000000     0.870900000000     0.097260000000     0.0220074  
C        C      0.037900000000     0.835700000000     0.135420000000     0.0220074  
C        C      0.968400000000     0.801500000000     0.171190000000     0.0220074  
C        C      0.029600000000     0.763900000000     0.206120000000     0.0220074  
C        C      0.164300000000     0.754700000000     0.207040000000     0.0220074  
C        C      0.235500000000     0.787200000000     0.173600000000     0.0220074  
C        C      0.177200000000     0.831000000000     0.137090000000     0.0220074  
C        C      0.397400000000     0.881200000000     0.102590000000     0.0220074  
C        C      0.832800000000     0.875700000000     0.090760000000     0.0220074  
C        C      0.597000000000     0.284000000000     0.117330000000     0.0220074  
C        C      0.547100000000     0.297100000000     0.078290000000     0.0220074  
C        C      0.534900000000     0.403900000000     0.060320000000     0.0220074  
C        C      0.576600000000     0.498800000000     0.080970000000     0.0220074  
C        C      0.631100000000     0.488300000000     0.121650000000     0.0220074  
C        C      0.670400000000     0.583100000000     0.145790000000     0.0220074  
C        C      0.717800000000     0.568700000000     0.184920000000     0.0220074  
C        C      0.730300000000     0.461400000000     0.202450000000     0.0220074  
C        C      0.693900000000     0.369200000000     0.180240000000     0.0220074  
C        C      0.640200000000     0.379300000000     0.140240000000     0.0220074  
C        C      0.596600000000     0.168400000000     0.136460000000     0.0220074  
C        C      0.556100000000     0.610300000000     0.059770000000     0.0220074  
C        C      0.731800000000     0.049600000000     0.809890000000     0.0220074  
C        C      0.598900000000     0.042900000000     0.814330000000     0.0220074  
C        C      0.548000000000     0.003400000000     0.851350000000     0.0220074  
C        C      0.628300000000     0.971100000000     0.883210000000     0.0220074  
C        C      0.761600000000     0.978400000000     0.878430000000     0.0220074  
C        C      0.813200000000     0.017400000000     0.841820000000     0.0220074  
C        C      0.770400000000     0.041300000000     0.733920000000     0.0220074  
C        C      0.921900000000     0.165500000000     0.727950000000     0.0220074  
C        C      0.886900000000     0.166700000000     0.768160000000     0.0220074  
C        C      0.646000000000     0.906100000000     0.956070000000     0.0220074  
C        C      0.445700000000     0.865200000000     0.969270000000     0.0220074  
C        C      0.449300000000     0.902500000000     0.929920000000     0.0220074  
C        C      0.248500000000     0.131700000000     0.601870000000     0.0220074  
C        C      0.312600000000     0.101700000000     0.566150000000     0.0220074  
C        C      0.447500000000     0.100800000000     0.563630000000     0.0220074  
C        C      0.523500000000     0.129100000000     0.597260000000     0.0220074  
C        C      0.462100000000     0.164300000000     0.635420000000     0.0220074  
C        C      0.531600000000     0.198500000000     0.671190000000     0.0220074  
C        C      0.470400000000     0.236100000000     0.706120000000     0.0220074  
C        C      0.335700000000     0.245300000000     0.707040000000     0.0220074  
C        C      0.264500000000     0.212800000000     0.673600000000     0.0220074  
C        C      0.322800000000     0.169000000000     0.637090000000     0.0220074  
C        C      0.102600000000     0.118800000000     0.602590000000     0.0220074  
C        C      0.667200000000     0.124300000000     0.590760000000     0.0220074  
C        C      0.903000000000     0.716000000000     0.617330000000     0.0220074  
C        C      0.952900000000     0.702900000000     0.578290000000     0.0220074  
C        C      0.965100000000     0.596100000000     0.560320000000     0.0220074  
C        C      0.923400000000     0.501200000000     0.580970000000     0.0220074  
C        C      0.868900000000     0.511700000000     0.621650000000     0.0220074  
C        C      0.829600000000     0.416900000000     0.645790000000     0.0220074  
C        C      0.782200000000     0.431300000000     0.684920000000     0.0220074  
C        C      0.769700000000     0.538600000000     0.702450000000     0.0220074  
C        C      0.806100000000     0.630800000000     0.680240000000     0.0220074  
C        C      0.859800000000     0.620700000000     0.640240000000     0.0220074  
C        C      0.903400000000     0.831600000000     0.636460000000     0.0220074  
C        C      0.943900000000     0.389700000000     0.559770000000     0.0220074  
C        C      0.768200000000     0.950400000000     0.309890000000     0.0220074  
C        C      0.901100000000     0.957100000000     0.314330000000     0.0220074  
C        C      0.952000000000     0.996600000000     0.351350000000     0.0220074  
C        C      0.871700000000     0.028900000000     0.383210000000     0.0220074  
C        C      0.738400000000     0.021600000000     0.378430000000     0.0220074  
C        C      0.686800000000     0.982600000000     0.341820000000     0.0220074  
C        C      0.729600000000     0.958700000000     0.233920000000     0.0220074  
C        C      0.578100000000     0.834500000000     0.227950000000     0.0220074  
C        C      0.613100000000     0.833300000000     0.268160000000     0.0220074  
C        C      0.854000000000     0.093900000000     0.456070000000     0.0220074  
C        C      0.054300000000     0.134800000000     0.469270000000     0.0220074  
C        C      0.050700000000     0.097500000000     0.429920000000     0.0220074  
C        C      0.748500000000     0.368300000000     0.398130000000     0.0220074  
C        C      0.812600000000     0.398300000000     0.433850000000     0.0220074  
C        C      0.947500000000     0.399200000000     0.436370000000     0.0220074  
C        C      0.023500000000     0.370900000000     0.402740000000     0.0220074  
C        C      0.962100000000     0.335700000000     0.364580000000     0.0220074  
C        C      0.031600000000     0.301500000000     0.328810000000     0.0220074  
C        C      0.970400000000     0.263900000000     0.293880000000     0.0220074  
C        C      0.835700000000     0.254700000000     0.292960000000     0.0220074  
C        C      0.764500000000     0.287200000000     0.326400000000     0.0220074  
C        C      0.822800000000     0.331000000000     0.362910000000     0.0220074  
C        C      0.602600000000     0.381200000000     0.397410000000     0.0220074  
C        C      0.167200000000     0.375700000000     0.409240000000     0.0220074  
C        C      0.403000000000     0.784000000000     0.382670000000     0.0220074  
C        C      0.452900000000     0.797100000000     0.421710000000     0.0220074  
C        C      0.465100000000     0.903900000000     0.439680000000     0.0220074  
C        C      0.423400000000     0.998800000000     0.419030000000     0.0220074  
C        C      0.368900000000     0.988300000000     0.378350000000     0.0220074  
C        C      0.329600000000     0.083100000000     0.354210000000     0.0220074  
C        C      0.282200000000     0.068700000000     0.315080000000     0.0220074  
C        C      0.269700000000     0.961400000000     0.297550000000     0.0220074  
C        C      0.306100000000     0.869200000000     0.319760000000     0.0220074  
C        C      0.359800000000     0.879300000000     0.359760000000     0.0220074  
C        C      0.403400000000     0.668400000000     0.363540000000     0.0220074  
C        C      0.443900000000     0.110300000000     0.440230000000     0.0220074  
C        C      0.268200000000     0.549600000000     0.690110000000     0.0220074  
C        C      0.401100000000     0.542900000000     0.685670000000     0.0220074  
C        C      0.452000000000     0.503400000000     0.648650000000     0.0220074  
C        C      0.371700000000     0.471100000000     0.616790000000     0.0220074  
C        C      0.238400000000     0.478400000000     0.621570000000     0.0220074  
C        C      0.186800000000     0.517400000000     0.658180000000     0.0220074  
C        C      0.229600000000     0.541300000000     0.766080000000     0.0220074  
C        C      0.078100000000     0.665500000000     0.772050000000     0.0220074  
C        C      0.113100000000     0.666700000000     0.731840000000     0.0220074  
C        C      0.354000000000     0.406100000000     0.543930000000     0.0220074  
C        C      0.554300000000     0.365200000000     0.530730000000     0.0220074  
C        C      0.550700000000     0.402500000000     0.570080000000     0.0220074  
C        C      0.751500000000     0.631700000000     0.898130000000     0.0220074  
C        C      0.687400000000     0.601700000000     0.933850000000     0.0220074  
C        C      0.552500000000     0.600800000000     0.936370000000     0.0220074  
C        C      0.476500000000     0.629100000000     0.902740000000     0.0220074  
C        C      0.537900000000     0.664300000000     0.864580000000     0.0220074  
C        C      0.468400000000     0.698500000000     0.828810000000     0.0220074  
C        C      0.529600000000     0.736100000000     0.793880000000     0.0220074  
C        C      0.664300000000     0.745300000000     0.792960000000     0.0220074  
C        C      0.735500000000     0.712800000000     0.826400000000     0.0220074  
C        C      0.677200000000     0.669000000000     0.862910000000     0.0220074  
C        C      0.897400000000     0.618800000000     0.897410000000     0.0220074  
C        C      0.332800000000     0.624300000000     0.909240000000     0.0220074  
C        C      0.097000000000     0.216000000000     0.882670000000     0.0220074  
C        C      0.047100000000     0.202900000000     0.921710000000     0.0220074  
C        C      0.034900000000     0.096100000000     0.939680000000     0.0220074  
C        C      0.076600000000     0.001200000000     0.919030000000     0.0220074  
C        C      0.131100000000     0.011700000000     0.878350000000     0.0220074  
C        C      0.170400000000     0.916900000000     0.854210000000     0.0220074  
C        C      0.217800000000     0.931300000000     0.815080000000     0.0220074  
C        C      0.230300000000     0.038600000000     0.797550000000     0.0220074  
C        C      0.193900000000     0.130800000000     0.819760000000     0.0220074  
C        C      0.140200000000     0.120700000000     0.859760000000     0.0220074  
C        C      0.096600000000     0.331600000000     0.863540000000     0.0220074  
C        C      0.056100000000     0.889700000000     0.940230000000     0.0220074  
C        C      0.231800000000     0.450400000000     0.190110000000     0.0220074  
C        C      0.098900000000     0.457100000000     0.185670000000     0.0220074  
C        C      0.048000000000     0.496600000000     0.148650000000     0.0220074  
C        C      0.128300000000     0.528900000000     0.116790000000     0.0220074  
C        C      0.261600000000     0.521600000000     0.121570000000     0.0220074  
C        C      0.313200000000     0.482600000000     0.158180000000     0.0220074  
C        C      0.270400000000     0.458700000000     0.266080000000     0.0220074  
C        C      0.421900000000     0.334500000000     0.272050000000     0.0220074  
C        C      0.386900000000     0.333300000000     0.231840000000     0.0220074  
C        C      0.146000000000     0.593900000000     0.043930000000     0.0220074  
C        C      0.945700000000     0.634800000000     0.030730000000     0.0220074  
C        C      0.949300000000     0.597500000000     0.070080000000     0.0220074  
N        N      0.789500000000     0.087110000000     0.771650000000    -0.148451   
N        N      0.849700000000     0.087530000000     0.706530000000    -0.148451   
N        N      0.577000000000     0.928300000000     0.921280000000    -0.148451   
N        N      0.569900000000     0.868400000000     0.985620000000    -0.148451   
N        N      0.710500000000     0.912890000000     0.271650000000    -0.148451   
N        N      0.650300000000     0.912470000000     0.206530000000    -0.148451   
N        N      0.923000000000     0.071700000000     0.421280000000    -0.148451   
N        N      0.930100000000     0.131600000000     0.485620000000    -0.148451   
N        N      0.210500000000     0.587110000000     0.728350000000    -0.148451   
N        N      0.150300000000     0.587530000000     0.793470000000    -0.148451   
N        N      0.423000000000     0.428300000000     0.578720000000    -0.148451   
N        N      0.430100000000     0.368400000000     0.514380000000    -0.148451   
N        N      0.289500000000     0.412890000000     0.228350000000    -0.148451   
N        N      0.349700000000     0.412470000000     0.293470000000    -0.148451   
N        N      0.077000000000     0.571700000000     0.078720000000    -0.148451   
N        N      0.069900000000     0.631600000000     0.014380000000    -0.148451   
O        O      0.454000000000     0.886810000000     0.136930000000    -0.289033   
O        O      0.452980000000     0.892970000000     0.068120000000    -0.289033   
O        O      0.756690000000     0.857840000000     0.121050000000    -0.289033   
O        O      0.790530000000     0.895000000000     0.054640000000    -0.289033   
O        O      0.658300000000     0.092360000000     0.116940000000    -0.289033   
O        O      0.534300000000     0.149940000000     0.168210000000    -0.289033   
O        O      0.452700000000     0.629650000000     0.042180000000    -0.289033   
O        O      0.651460000000     0.679660000000     0.061740000000    -0.289033   
O        O      0.046000000000     0.113190000000     0.636930000000    -0.289033   
O        O      0.047020000000     0.107030000000     0.568120000000    -0.289033   
O        O      0.743310000000     0.142160000000     0.621050000000    -0.289033   
O        O      0.709470000000     0.105000000000     0.554640000000    -0.289033   
O        O      0.841700000000     0.907640000000     0.616940000000    -0.289033   
O        O      0.965700000000     0.850060000000     0.668210000000    -0.289033   
O        O      0.047300000000     0.370350000000     0.542180000000    -0.289033   
O        O      0.848540000000     0.320340000000     0.561740000000    -0.289033   
O        O      0.546000000000     0.386810000000     0.363070000000    -0.289033   
O        O      0.547020000000     0.392970000000     0.431880000000    -0.289033   
O        O      0.243310000000     0.357840000000     0.378950000000    -0.289033   
O        O      0.209470000000     0.395000000000     0.445360000000    -0.289033   
O        O      0.341700000000     0.592360000000     0.383060000000    -0.289033   
O        O      0.465700000000     0.649940000000     0.331790000000    -0.289033   
O        O      0.547300000000     0.129650000000     0.457820000000    -0.289033   
O        O      0.348540000000     0.179660000000     0.438260000000    -0.289033   
O        O      0.954000000000     0.613190000000     0.863070000000    -0.289033   
O        O      0.952980000000     0.607030000000     0.931880000000    -0.289033   
O        O      0.256690000000     0.642160000000     0.878950000000    -0.289033   
O        O      0.290530000000     0.605000000000     0.945360000000    -0.289033   
O        O      0.158300000000     0.407640000000     0.883060000000    -0.289033   
O        O      0.034300000000     0.350060000000     0.831790000000    -0.289033   
O        O      0.952700000000     0.870350000000     0.957820000000    -0.289033   
O        O      0.151460000000     0.820340000000     0.938260000000    -0.289033   


