data_YEKXET_original

_audit_creation_method RASPA-1.0
_audit_creation_date 2022-1-30
_audit_author_name 'Felipe Lopes de Oliveira <felipe.lopes.oliveira@ibm.com>'

_cell_length_a    15.1751
_cell_length_b    15.1751
_cell_length_c    22.5604
_cell_angle_alpha 90
_cell_angle_beta  90
_cell_angle_gamma 90
_cell_volume      5195.29

_symmetry_cell_setting          triclinic
_symmetry_space_group_name_Hall 'P 1'
_symmetry_space_group_name_H-M  'P 1'
_symmetry_Int_Tables_number     1

_symmetry_equiv_pos_as_xyz 'x,y,z'

loop_
_atom_site_label
_atom_site_type_symbol
_atom_site_fract_x
_atom_site_fract_y
_atom_site_fract_z
_atom_site_charge
Zn       Zn     0.757530000000     0.666790000000     0.856090000000     0.482595   
Zn       Zn     0.242470000000     0.333210000000     0.356100000000     0.482595   
Zn       Zn     0.833210000000     0.257530000000     0.606090000000     0.482595   
Zn       Zn     0.166790000000     0.742470000000     0.106100000000     0.482595   
Zn       Zn     0.742470000000     0.166790000000     0.893910000000     0.482595   
Zn       Zn     0.257530000000     0.833210000000     0.393910000000     0.482595   
Zn       Zn     0.666790000000     0.757530000000     0.143910000000     0.482595   
Zn       Zn     0.333210000000     0.242470000000     0.643910000000     0.482595   
Zn       Zn     0.721280000000     0.721280000000     0.000000000000     0.482595   
Zn       Zn     0.278720000000     0.278720000000     0.500000000000     0.482595   
Zn       Zn     0.778720000000     0.221280000000     0.750000000000     0.482595   
Zn       Zn     0.221280000000     0.778720000000     0.250000000000     0.482595   
H        H      0.994100000000     0.740900000000     0.037100000000     0.0360648  
H        H      0.036600000000     0.632800000000     0.877500000000     0.0360648  
H        H      0.187900000000     0.629000000000     0.898500000000     0.0360648  
H        H      0.324600000000     0.635500000000     0.923700000000     0.0360648  
H        H      0.469300000000     0.645700000000     0.955800000000     0.0360648  
H        H      0.379300000000     0.737300000000     0.112500000000     0.0360648  
H        H      0.569600000000     0.792900000000     0.905600000000     0.0360648  
H        H      0.005900000000     0.259100000000     0.537100000000     0.0360648  
H        H      0.963400000000     0.367200000000     0.377500000000     0.0360648  
H        H      0.812100000000     0.371000000000     0.398500000000     0.0360648  
H        H      0.675400000000     0.364500000000     0.423700000000     0.0360648  
H        H      0.530700000000     0.354300000000     0.455800000000     0.0360648  
H        H      0.620700000000     0.262700000000     0.612500000000     0.0360648  
H        H      0.430400000000     0.207100000000     0.405600000000     0.0360648  
H        H      0.759100000000     0.494100000000     0.787100000000     0.0360648  
H        H      0.867200000000     0.536600000000     0.627500000000     0.0360648  
H        H      0.871000000000     0.687900000000     0.648500000000     0.0360648  
H        H      0.864500000000     0.824600000000     0.673700000000     0.0360648  
H        H      0.854300000000     0.969300000000     0.705800000000     0.0360648  
H        H      0.762700000000     0.879300000000     0.862500000000     0.0360648  
H        H      0.707100000000     0.069600000000     0.655600000000     0.0360648  
H        H      0.240900000000     0.505900000000     0.287100000000     0.0360648  
H        H      0.132800000000     0.463400000000     0.127500000000     0.0360648  
H        H      0.129000000000     0.312100000000     0.148500000000     0.0360648  
H        H      0.135500000000     0.175400000000     0.173700000000     0.0360648  
H        H      0.145700000000     0.030700000000     0.205800000000     0.0360648  
H        H      0.237300000000     0.120700000000     0.362500000000     0.0360648  
H        H      0.292900000000     0.930400000000     0.155600000000     0.0360648  
H        H      0.505900000000     0.240900000000     0.712900000000     0.0360648  
H        H      0.463400000000     0.132800000000     0.872500000000     0.0360648  
H        H      0.312100000000     0.129000000000     0.851500000000     0.0360648  
H        H      0.175400000000     0.135500000000     0.826300000000     0.0360648  
H        H      0.030700000000     0.145700000000     0.794200000000     0.0360648  
H        H      0.120700000000     0.237300000000     0.637500000000     0.0360648  
H        H      0.930400000000     0.292900000000     0.844400000000     0.0360648  
H        H      0.494100000000     0.759100000000     0.212900000000     0.0360648  
H        H      0.536600000000     0.867200000000     0.372500000000     0.0360648  
H        H      0.687900000000     0.871000000000     0.351500000000     0.0360648  
H        H      0.824600000000     0.864500000000     0.326300000000     0.0360648  
H        H      0.969300000000     0.854300000000     0.294200000000     0.0360648  
H        H      0.879300000000     0.762700000000     0.137500000000     0.0360648  
H        H      0.069600000000     0.707100000000     0.344400000000     0.0360648  
H        H      0.740900000000     0.994100000000     0.962900000000     0.0360648  
H        H      0.632800000000     0.036600000000     0.122500000000     0.0360648  
H        H      0.629000000000     0.187900000000     0.101500000000     0.0360648  
H        H      0.635500000000     0.324600000000     0.076300000000     0.0360648  
H        H      0.645700000000     0.469300000000     0.044200000000     0.0360648  
H        H      0.737300000000     0.379300000000     0.887500000000     0.0360648  
H        H      0.792900000000     0.569600000000     0.094400000000     0.0360648  
H        H      0.259100000000     0.005900000000     0.462900000000     0.0360648  
H        H      0.367200000000     0.963400000000     0.622500000000     0.0360648  
H        H      0.371000000000     0.812100000000     0.601500000000     0.0360648  
H        H      0.364500000000     0.675400000000     0.576300000000     0.0360648  
H        H      0.354300000000     0.530700000000     0.544200000000     0.0360648  
H        H      0.262700000000     0.620700000000     0.387500000000     0.0360648  
H        H      0.207100000000     0.430400000000     0.594400000000     0.0360648  
C        C      0.033500000000     0.717300000000     0.008400000000     0.0798126  
C        C      0.998900000000     0.687700000000     0.955200000000     0.0798126  
C        C      0.057700000000     0.654100000000     0.914500000000     0.0798126  
C        C      0.147000000000     0.650800000000     0.926800000000     0.0798126  
C        C      0.175000000000     0.680500000000     0.981900000000     0.0798126  
C        C      0.268600000000     0.680400000000     0.999000000000     0.0798126  
C        C      0.336900000000     0.656400000000     0.962500000000     0.0798126  
C        C      0.422300000000     0.662200000000     0.981300000000     0.0798126  
C        C      0.439600000000     0.692600000000     0.038300000000     0.0798126  
C        C      0.368000000000     0.717000000000     0.073400000000     0.0798126  
C        C      0.901300000000     0.695300000000     0.942760000000     0.0798126  
C        C      0.532700000000     0.711800000000     0.057800000000     0.0798126  
C        C      0.612000000000     0.755700000000     0.887300000000     0.0798126  
C        C      0.966500000000     0.282700000000     0.508400000000     0.0798126  
C        C      0.001100000000     0.312300000000     0.455200000000     0.0798126  
C        C      0.942300000000     0.345900000000     0.414500000000     0.0798126  
C        C      0.853000000000     0.349200000000     0.426800000000     0.0798126  
C        C      0.825000000000     0.319500000000     0.481900000000     0.0798126  
C        C      0.731400000000     0.319600000000     0.499000000000     0.0798126  
C        C      0.663100000000     0.343600000000     0.462500000000     0.0798126  
C        C      0.577700000000     0.337800000000     0.481300000000     0.0798126  
C        C      0.560400000000     0.307400000000     0.538300000000     0.0798126  
C        C      0.632000000000     0.283000000000     0.573400000000     0.0798126  
C        C      0.098700000000     0.304700000000     0.442760000000     0.0798126  
C        C      0.467300000000     0.288200000000     0.557800000000     0.0798126  
C        C      0.388000000000     0.244300000000     0.387300000000     0.0798126  
C        C      0.782700000000     0.533500000000     0.758400000000     0.0798126  
C        C      0.812300000000     0.498900000000     0.705200000000     0.0798126  
C        C      0.845900000000     0.557700000000     0.664500000000     0.0798126  
C        C      0.849200000000     0.647000000000     0.676800000000     0.0798126  
C        C      0.819500000000     0.675000000000     0.731900000000     0.0798126  
C        C      0.819600000000     0.768600000000     0.749000000000     0.0798126  
C        C      0.843600000000     0.836900000000     0.712500000000     0.0798126  
C        C      0.837800000000     0.922300000000     0.731300000000     0.0798126  
C        C      0.807400000000     0.939600000000     0.788300000000     0.0798126  
C        C      0.783000000000     0.868000000000     0.823400000000     0.0798126  
C        C      0.804700000000     0.401300000000     0.692760000000     0.0798126  
C        C      0.788200000000     0.032700000000     0.807800000000     0.0798126  
C        C      0.744300000000     0.112000000000     0.637300000000     0.0798126  
C        C      0.217300000000     0.466500000000     0.258400000000     0.0798126  
C        C      0.187700000000     0.501100000000     0.205200000000     0.0798126  
C        C      0.154100000000     0.442300000000     0.164500000000     0.0798126  
C        C      0.150800000000     0.353000000000     0.176800000000     0.0798126  
C        C      0.180500000000     0.325000000000     0.231900000000     0.0798126  
C        C      0.180400000000     0.231400000000     0.249000000000     0.0798126  
C        C      0.156400000000     0.163100000000     0.212500000000     0.0798126  
C        C      0.162200000000     0.077700000000     0.231300000000     0.0798126  
C        C      0.192600000000     0.060400000000     0.288300000000     0.0798126  
C        C      0.217000000000     0.132000000000     0.323400000000     0.0798126  
C        C      0.195300000000     0.598700000000     0.192760000000     0.0798126  
C        C      0.211800000000     0.967300000000     0.307800000000     0.0798126  
C        C      0.255700000000     0.888000000000     0.137300000000     0.0798126  
C        C      0.466500000000     0.217300000000     0.741600000000     0.0798126  
C        C      0.501100000000     0.187700000000     0.794800000000     0.0798126  
C        C      0.442300000000     0.154100000000     0.835500000000     0.0798126  
C        C      0.353000000000     0.150800000000     0.823200000000     0.0798126  
C        C      0.325000000000     0.180500000000     0.768100000000     0.0798126  
C        C      0.231400000000     0.180400000000     0.751000000000     0.0798126  
C        C      0.163100000000     0.156400000000     0.787500000000     0.0798126  
C        C      0.077700000000     0.162200000000     0.768700000000     0.0798126  
C        C      0.060400000000     0.192600000000     0.711700000000     0.0798126  
C        C      0.132000000000     0.217000000000     0.676600000000     0.0798126  
C        C      0.598700000000     0.195300000000     0.807240000000     0.0798126  
C        C      0.967300000000     0.211800000000     0.692200000000     0.0798126  
C        C      0.888000000000     0.255700000000     0.862700000000     0.0798126  
C        C      0.533500000000     0.782700000000     0.241600000000     0.0798126  
C        C      0.498900000000     0.812300000000     0.294800000000     0.0798126  
C        C      0.557700000000     0.845900000000     0.335500000000     0.0798126  
C        C      0.647000000000     0.849200000000     0.323200000000     0.0798126  
C        C      0.675000000000     0.819500000000     0.268100000000     0.0798126  
C        C      0.768600000000     0.819600000000     0.251000000000     0.0798126  
C        C      0.836900000000     0.843600000000     0.287500000000     0.0798126  
C        C      0.922300000000     0.837800000000     0.268700000000     0.0798126  
C        C      0.939600000000     0.807400000000     0.211700000000     0.0798126  
C        C      0.868000000000     0.783000000000     0.176600000000     0.0798126  
C        C      0.401300000000     0.804700000000     0.307240000000     0.0798126  
C        C      0.032700000000     0.788200000000     0.192200000000     0.0798126  
C        C      0.112000000000     0.744300000000     0.362700000000     0.0798126  
C        C      0.717300000000     0.033500000000     0.991600000000     0.0798126  
C        C      0.687700000000     0.998900000000     0.044800000000     0.0798126  
C        C      0.654100000000     0.057700000000     0.085500000000     0.0798126  
C        C      0.650800000000     0.147000000000     0.073200000000     0.0798126  
C        C      0.680500000000     0.175000000000     0.018100000000     0.0798126  
C        C      0.680400000000     0.268600000000     0.001000000000     0.0798126  
C        C      0.656400000000     0.336900000000     0.037500000000     0.0798126  
C        C      0.662200000000     0.422300000000     0.018700000000     0.0798126  
C        C      0.692600000000     0.439600000000     0.961700000000     0.0798126  
C        C      0.717000000000     0.368000000000     0.926600000000     0.0798126  
C        C      0.695300000000     0.901300000000     0.057240000000     0.0798126  
C        C      0.711800000000     0.532700000000     0.942200000000     0.0798126  
C        C      0.755700000000     0.612000000000     0.112700000000     0.0798126  
C        C      0.282700000000     0.966500000000     0.491600000000     0.0798126  
C        C      0.312300000000     0.001100000000     0.544800000000     0.0798126  
C        C      0.345900000000     0.942300000000     0.585500000000     0.0798126  
C        C      0.349200000000     0.853000000000     0.573200000000     0.0798126  
C        C      0.319500000000     0.825000000000     0.518100000000     0.0798126  
C        C      0.319600000000     0.731400000000     0.501000000000     0.0798126  
C        C      0.343600000000     0.663100000000     0.537500000000     0.0798126  
C        C      0.337800000000     0.577700000000     0.518700000000     0.0798126  
C        C      0.307400000000     0.560400000000     0.461700000000     0.0798126  
C        C      0.283000000000     0.632000000000     0.426600000000     0.0798126  
C        C      0.304700000000     0.098700000000     0.557240000000     0.0798126  
C        C      0.288200000000     0.467300000000     0.442200000000     0.0798126  
C        C      0.244300000000     0.388000000000     0.612700000000     0.0798126  
N        N      0.117300000000     0.714300000000     0.021200000000    -0.149192   
N        N      0.284800000000     0.713100000000     0.055000000000    -0.149192   
N        N      0.882700000000     0.285700000000     0.521200000000    -0.149192   
N        N      0.715200000000     0.286900000000     0.555000000000    -0.149192   
N        N      0.785700000000     0.617300000000     0.771200000000    -0.149192   
N        N      0.786900000000     0.784800000000     0.805000000000    -0.149192   
N        N      0.214300000000     0.382700000000     0.271200000000    -0.149192   
N        N      0.213100000000     0.215200000000     0.305000000000    -0.149192   
N        N      0.382700000000     0.214300000000     0.728800000000    -0.149192   
N        N      0.215200000000     0.213100000000     0.695000000000    -0.149192   
N        N      0.617300000000     0.785700000000     0.228800000000    -0.149192   
N        N      0.784800000000     0.786900000000     0.195000000000    -0.149192   
N        N      0.714300000000     0.117300000000     0.978800000000    -0.149192   
N        N      0.713100000000     0.284800000000     0.945000000000    -0.149192   
N        N      0.285700000000     0.882700000000     0.478800000000    -0.149192   
N        N      0.286900000000     0.715200000000     0.445000000000    -0.149192   
O        O      0.854000000000     0.726000000000     0.982270000000    -0.285921   
O        O      0.878090000000     0.666200000000     0.892520000000    -0.285921   
O        O      0.585000000000     0.721800000000     0.014500000000    -0.285921   
O        O      0.545870000000     0.719620000000     0.112280000000    -0.285921   
O        O      0.686520000000     0.745070000000     0.911770000000    -0.285921   
O        O      0.593300000000     0.718000000000     0.839530000000    -0.285921   
O        O      0.146000000000     0.274000000000     0.482270000000    -0.285921   
O        O      0.121910000000     0.333800000000     0.392520000000    -0.285921   
O        O      0.415000000000     0.278200000000     0.514500000000    -0.285921   
O        O      0.454130000000     0.280380000000     0.612280000000    -0.285921   
O        O      0.313480000000     0.254930000000     0.411770000000    -0.285921   
O        O      0.406700000000     0.282000000000     0.339530000000    -0.285921   
O        O      0.774000000000     0.354000000000     0.732270000000    -0.285921   
O        O      0.833800000000     0.378090000000     0.642520000000    -0.285921   
O        O      0.778200000000     0.085000000000     0.764500000000    -0.285921   
O        O      0.780380000000     0.045870000000     0.862280000000    -0.285921   
O        O      0.754930000000     0.186520000000     0.661770000000    -0.285921   
O        O      0.782000000000     0.093300000000     0.589530000000    -0.285921   
O        O      0.226000000000     0.646000000000     0.232270000000    -0.285921   
O        O      0.166200000000     0.621910000000     0.142520000000    -0.285921   
O        O      0.221800000000     0.915000000000     0.264500000000    -0.285921   
O        O      0.219620000000     0.954130000000     0.362280000000    -0.285921   
O        O      0.245070000000     0.813480000000     0.161770000000    -0.285921   
O        O      0.218000000000     0.906700000000     0.089530000000    -0.285921   
O        O      0.646000000000     0.226000000000     0.767730000000    -0.285921   
O        O      0.621910000000     0.166200000000     0.857480000000    -0.285921   
O        O      0.915000000000     0.221800000000     0.735500000000    -0.285921   
O        O      0.954130000000     0.219620000000     0.637720000000    -0.285921   
O        O      0.813480000000     0.245070000000     0.838230000000    -0.285921   
O        O      0.906700000000     0.218000000000     0.910470000000    -0.285921   
O        O      0.354000000000     0.774000000000     0.267730000000    -0.285921   
O        O      0.378090000000     0.833800000000     0.357480000000    -0.285921   
O        O      0.085000000000     0.778200000000     0.235500000000    -0.285921   
O        O      0.045870000000     0.780380000000     0.137720000000    -0.285921   
O        O      0.186520000000     0.754930000000     0.338230000000    -0.285921   
O        O      0.093300000000     0.782000000000     0.410470000000    -0.285921   
O        O      0.726000000000     0.854000000000     0.017730000000    -0.285921   
O        O      0.666200000000     0.878090000000     0.107480000000    -0.285921   
O        O      0.721800000000     0.585000000000     0.985500000000    -0.285921   
O        O      0.719620000000     0.545870000000     0.887720000000    -0.285921   
O        O      0.745070000000     0.686520000000     0.088230000000    -0.285921   
O        O      0.718000000000     0.593300000000     0.160470000000    -0.285921   
O        O      0.274000000000     0.146000000000     0.517730000000    -0.285921   
O        O      0.333800000000     0.121910000000     0.607480000000    -0.285921   
O        O      0.278200000000     0.415000000000     0.485500000000    -0.285921   
O        O      0.280380000000     0.454130000000     0.387720000000    -0.285921   
O        O      0.254930000000     0.313480000000     0.588230000000    -0.285921   
O        O      0.282000000000     0.406700000000     0.660470000000    -0.285921   


