data_YUKBIP01_original

_audit_creation_method RASPA-1.0
_audit_creation_date 2022-1-31
_audit_author_name 'Felipe Lopes de Oliveira <felipe.lopes.oliveira@ibm.com>'

_cell_length_a    8.5311
_cell_length_b    13.9949
_cell_length_c    13.9949
_cell_angle_alpha 120
_cell_angle_beta  90
_cell_angle_gamma 90
_cell_volume      1447.02

_symmetry_cell_setting          triclinic
_symmetry_space_group_name_Hall 'P 1'
_symmetry_space_group_name_H-M  'P 1'
_symmetry_Int_Tables_number     1

_symmetry_equiv_pos_as_xyz 'x,y,z'

loop_
_atom_site_label
_atom_site_type_symbol
_atom_site_fract_x
_atom_site_fract_y
_atom_site_fract_z
_atom_site_charge
Al       Al     0.441200000000     0.494600000000     0.097300000000     8.36324    
Al       Al     0.441200000000     0.602700000000     0.505400000000     8.36324    
Al       Al     0.441200000000     0.902700000000     0.397300000000     8.36324    
Al       Al     0.941200000000     0.397300000000     0.902700000000     8.36324    
Al       Al     0.941200000000     0.097300000000     0.494600000000     8.36324    
Al       Al     0.941200000000     0.505400000000     0.602700000000     8.36324    
Al       Al     0.510200000000     0.333330000000     0.666660000000     8.36324    
Al       Al     0.010200000000     0.666670000000     0.333340000000     8.36324    
P        P      0.300300000000     0.347990000000     0.865710000000     1.76736    
P        P      0.768600000000     0.189720000000     0.719290000000     1.76736    
P        P      0.300300000000     0.517720000000     0.652010000000     1.76736    
P        P      0.768600000000     0.529570000000     0.810280000000     1.76736    
P        P      0.300300000000     0.134290000000     0.482280000000     1.76736    
P        P      0.768600000000     0.280710000000     0.470430000000     1.76736    
P        P      0.800300000000     0.482280000000     0.134290000000     1.76736    
P        P      0.268600000000     0.470430000000     0.280710000000     1.76736    
P        P      0.800300000000     0.865710000000     0.347990000000     1.76736    
P        P      0.268600000000     0.719290000000     0.189720000000     1.76736    
P        P      0.800300000000     0.652010000000     0.517720000000     1.76736    
P        P      0.268600000000     0.810280000000     0.529570000000     1.76736    
H        H      0.216800000000     0.189000000000     0.857300000000     0.191653   
H        H      0.368700000000     0.166400000000     0.786100000000     0.191653   
H        H      0.206400000000     0.177900000000     0.740300000000     0.191653   
H        H      0.787800000000     0.065900000000     0.779700000000     0.191653   
H        H      0.633800000000     0.044800000000     0.710800000000     0.191653   
H        H      0.641500000000     0.142200000000     0.833000000000     0.191653   
H        H      0.216800000000     0.668300000000     0.811000000000     0.191653   
H        H      0.368700000000     0.619700000000     0.833600000000     0.191653   
H        H      0.206400000000     0.562400000000     0.822100000000     0.191653   
H        H      0.787800000000     0.713800000000     0.934100000000     0.191653   
H        H      0.633800000000     0.666000000000     0.955200000000     0.191653   
H        H      0.641500000000     0.690800000000     0.857800000000     0.191653   
H        H      0.216800000000     0.142700000000     0.331700000000     0.191653   
H        H      0.368700000000     0.213900000000     0.380300000000     0.191653   
H        H      0.206400000000     0.259700000000     0.437600000000     0.191653   
H        H      0.787800000000     0.220300000000     0.286200000000     0.191653   
H        H      0.633800000000     0.289200000000     0.334000000000     0.191653   
H        H      0.641500000000     0.167000000000     0.309200000000     0.191653   
H        H      0.716800000000     0.331700000000     0.142700000000     0.191653   
H        H      0.868700000000     0.380300000000     0.213900000000     0.191653   
H        H      0.706400000000     0.437600000000     0.259700000000     0.191653   
H        H      0.287800000000     0.286200000000     0.220300000000     0.191653   
H        H      0.133800000000     0.334000000000     0.289200000000     0.191653   
H        H      0.141500000000     0.309200000000     0.167000000000     0.191653   
H        H      0.716800000000     0.857300000000     0.189000000000     0.191653   
H        H      0.868700000000     0.786100000000     0.166400000000     0.191653   
H        H      0.706400000000     0.740300000000     0.177900000000     0.191653   
H        H      0.287800000000     0.779700000000     0.065900000000     0.191653   
H        H      0.133800000000     0.710800000000     0.044800000000     0.191653   
H        H      0.141500000000     0.833000000000     0.142200000000     0.191653   
H        H      0.716800000000     0.811000000000     0.668300000000     0.191653   
H        H      0.868700000000     0.833600000000     0.619700000000     0.191653   
H        H      0.706400000000     0.822100000000     0.562400000000     0.191653   
H        H      0.287800000000     0.934100000000     0.713800000000     0.191653   
H        H      0.133800000000     0.955200000000     0.666000000000     0.191653   
H        H      0.141500000000     0.857800000000     0.690800000000     0.191653   
C        C      0.269500000000     0.203700000000     0.805300000000    -0.934354   
C        C      0.700100000000     0.100400000000     0.766000000000    -0.934354   
C        C      0.269500000000     0.601600000000     0.796300000000    -0.934354   
C        C      0.700100000000     0.665600000000     0.899600000000    -0.934354   
C        C      0.269500000000     0.194700000000     0.398400000000    -0.934354   
C        C      0.700100000000     0.234000000000     0.334400000000    -0.934354   
C        C      0.769500000000     0.398400000000     0.194700000000    -0.934354   
C        C      0.200100000000     0.334400000000     0.234000000000    -0.934354   
C        C      0.769500000000     0.805300000000     0.203700000000    -0.934354   
C        C      0.200100000000     0.766000000000     0.100400000000    -0.934354   
C        C      0.769500000000     0.796300000000     0.601600000000    -0.934354   
C        C      0.200100000000     0.899600000000     0.665600000000    -0.934354   
O        O      0.382800000000     0.375400000000     0.790700000000    -2.32782    
O        O      0.392200000000     0.385100000000     0.970700000000    -2.32782    
O        O      0.139300000000     0.405900000000     0.896400000000    -2.32782    
O        O      0.631200000000     0.246100000000     0.705100000000    -2.32782    
O        O      0.856300000000     0.112200000000     0.612700000000    -2.32782    
O        O      0.885900000000     0.267500000000     0.801300000000    -2.32782    
O        O      0.382800000000     0.415300000000     0.624600000000    -2.32782    
O        O      0.392200000000     0.585600000000     0.614900000000    -2.32782    
O        O      0.139300000000     0.490500000000     0.594100000000    -2.32782    
O        O      0.631200000000     0.459000000000     0.753900000000    -2.32782    
O        O      0.856300000000     0.500500000000     0.887800000000    -2.32782    
O        O      0.885900000000     0.533800000000     0.732500000000    -2.32782    
O        O      0.382800000000     0.209300000000     0.584700000000    -2.32782    
O        O      0.392200000000     0.029300000000     0.414400000000    -2.32782    
O        O      0.139300000000     0.103600000000     0.509500000000    -2.32782    
O        O      0.631200000000     0.294900000000     0.541000000000    -2.32782    
O        O      0.856300000000     0.387300000000     0.499500000000    -2.32782    
O        O      0.885900000000     0.198700000000     0.466200000000    -2.32782    
O        O      0.882800000000     0.584700000000     0.209300000000    -2.32782    
O        O      0.892200000000     0.414400000000     0.029300000000    -2.32782    
O        O      0.639300000000     0.509500000000     0.103600000000    -2.32782    
O        O      0.131200000000     0.541000000000     0.294900000000    -2.32782    
O        O      0.356300000000     0.499500000000     0.387300000000    -2.32782    
O        O      0.385900000000     0.466200000000     0.198700000000    -2.32782    
O        O      0.882800000000     0.790700000000     0.375400000000    -2.32782    
O        O      0.892200000000     0.970700000000     0.385100000000    -2.32782    
O        O      0.639300000000     0.896400000000     0.405900000000    -2.32782    
O        O      0.131200000000     0.705100000000     0.246100000000    -2.32782    
O        O      0.356300000000     0.612700000000     0.112200000000    -2.32782    
O        O      0.385900000000     0.801300000000     0.267500000000    -2.32782    
O        O      0.882800000000     0.624600000000     0.415300000000    -2.32782    
O        O      0.892200000000     0.614900000000     0.585600000000    -2.32782    
O        O      0.639300000000     0.594100000000     0.490500000000    -2.32782    
O        O      0.131200000000     0.753900000000     0.459000000000    -2.32782    
O        O      0.356300000000     0.887800000000     0.500500000000    -2.32782    
O        O      0.385900000000     0.732500000000     0.533800000000    -2.32782    


