data_YUSGID_original

_audit_creation_method RASPA-1.0
_audit_creation_date 2022-1-31
_audit_author_name 'Felipe Lopes de Oliveira <felipe.lopes.oliveira@ibm.com>'

_cell_length_a    9.4093
_cell_length_b    9.876
_cell_length_c    18.307
_cell_angle_alpha 79.35
_cell_angle_beta  87.3
_cell_angle_gamma 68.2
_cell_volume      1551.9

_symmetry_cell_setting          triclinic
_symmetry_space_group_name_Hall 'P 1'
_symmetry_space_group_name_H-M  'P 1'
_symmetry_Int_Tables_number     1

_symmetry_equiv_pos_as_xyz 'x,y,z'

loop_
_atom_site_label
_atom_site_type_symbol
_atom_site_fract_x
_atom_site_fract_y
_atom_site_fract_z
_atom_site_charge
Zn       Zn     0.809240000000     0.100310000000     0.856650000000     0.463161   
Zn       Zn     0.094300000000     0.094480000000     0.968550000000     0.463161   
Zn       Zn     0.190760000000     0.899690000000     0.143350000000     0.463161   
Zn       Zn     0.905700000000     0.905520000000     0.031450000000     0.463161   
H        H      0.936200000000     0.067600000000     0.706800000000     0.0695042  
H        H      0.047200000000     0.188600000000     0.616500000000     0.0695042  
H        H      0.931700000000     0.523100000000     0.725200000000     0.0695042  
H        H      0.815200000000     0.402600000000     0.811100000000     0.0695042  
H        H      0.078600000000     0.541000000000     0.615800000000     0.0695042  
H        H      0.165500000000     0.306200000000     0.547800000000     0.0695042  
H        H      0.296900000000     0.305900000000     0.439700000000     0.0695042  
H        H      0.433400000000     0.391400000000     0.350500000000     0.0695042  
H        H      0.360400000000     0.739400000000     0.444900000000     0.0695042  
H        H      0.226800000000     0.648000000000     0.538000000000     0.0695042  
H        H      0.536300000000     0.534200000000     0.292600000000     0.0695042  
H        H      0.499600000000     0.790500000000     0.331500000000     0.0695042  
H        H      0.702000000000     0.552600000000     0.192700000000     0.0695042  
H        H      0.841500000000     0.631700000000     0.099100000000     0.0695042  
H        H      0.749300000000     0.000400000000     0.171900000000     0.0695042  
H        H      0.609800000000     0.930300000000     0.266700000000     0.0695042  
H        H      0.425600000000     0.460200000000     0.939000000000     0.0695042  
H        H      0.118900000000     0.460100000000     0.099100000000     0.0695042  
H        H      0.478300000000     0.086500000000     0.085800000000     0.0695042  
H        H      0.015000000000     0.903700000000     0.919100000000     0.0695042  
H        H      0.063800000000     0.932400000000     0.293200000000     0.0695042  
H        H      0.952800000000     0.811400000000     0.383500000000     0.0695042  
H        H      0.068300000000     0.476900000000     0.274800000000     0.0695042  
H        H      0.184800000000     0.597400000000     0.188900000000     0.0695042  
H        H      0.921400000000     0.459000000000     0.384200000000     0.0695042  
H        H      0.834500000000     0.693800000000     0.452200000000     0.0695042  
H        H      0.703100000000     0.694100000000     0.560300000000     0.0695042  
H        H      0.566600000000     0.608600000000     0.649500000000     0.0695042  
H        H      0.639600000000     0.260600000000     0.555100000000     0.0695042  
H        H      0.773200000000     0.352000000000     0.462000000000     0.0695042  
H        H      0.463700000000     0.465800000000     0.707400000000     0.0695042  
H        H      0.500400000000     0.209500000000     0.668500000000     0.0695042  
H        H      0.298000000000     0.447400000000     0.807300000000     0.0695042  
H        H      0.158500000000     0.368300000000     0.900900000000     0.0695042  
H        H      0.250700000000     0.999600000000     0.828100000000     0.0695042  
H        H      0.390200000000     0.069700000000     0.733300000000     0.0695042  
H        H      0.574400000000     0.539800000000     0.061000000000     0.0695042  
H        H      0.881100000000     0.539900000000     0.900900000000     0.0695042  
H        H      0.521700000000     0.913500000000     0.914200000000     0.0695042  
H        H      0.985000000000     0.096300000000     0.080900000000     0.0695042  
C        C      0.935900000000     0.159900000000     0.711400000000     0.00228112 
C        C      0.003900000000     0.232100000000     0.657200000000     0.00228112 
C        C      0.007600000000     0.366600000000     0.663000000000     0.00228112 
C        C      0.935000000000     0.429700000000     0.720700000000     0.00228112 
C        C      0.866500000000     0.356300000000     0.772500000000     0.00228112 
C        C      0.086200000000     0.447700000000     0.608700000000     0.00228112 
C        C      0.161900000000     0.398700000000     0.554100000000     0.00228112 
C        C      0.246100000000     0.468600000000     0.498400000000     0.00228112 
C        C      0.309500000000     0.394300000000     0.441500000000     0.00228112 
C        C      0.390500000000     0.446300000000     0.387500000000     0.00228112 
C        C      0.410400000000     0.574900000000     0.386200000000     0.00228112 
C        C      0.348100000000     0.650700000000     0.443600000000     0.00228112 
C        C      0.266900000000     0.596000000000     0.499600000000     0.00228112 
C        C      0.501500000000     0.606000000000     0.322500000000     0.00228112 
C        C      0.537600000000     0.715300000000     0.303700000000     0.00228112 
C        C      0.635600000000     0.737200000000     0.240900000000     0.00228112 
C        C      0.709600000000     0.644800000000     0.189200000000     0.00228112 
C        C      0.793800000000     0.693200000000     0.133000000000     0.00228112 
C        C      0.739700000000     0.908900000000     0.175800000000     0.00228112 
C        C      0.654600000000     0.867200000000     0.233100000000     0.00228112 
C        C      0.473000000000     0.259800000000     0.006330000000     0.00228112 
C        C      0.391300000000     0.410400000000     0.979840000000     0.00228112 
C        C      0.258100000000     0.485500000000     0.015100000000     0.00228112 
C        C      0.208500000000     0.410700000000     0.076020000000     0.00228112 
C        C      0.292100000000     0.261700000000     0.102860000000     0.00228112 
C        C      0.423300000000     0.186400000000     0.067950000000     0.00228112 
C        C      0.613400000000     0.175100000000     0.968590000000     0.00228112 
C        C      0.164800000000     0.647300000000     0.986770000000     0.00228112 
C        C      0.064100000000     0.840100000000     0.288600000000     0.00228112 
C        C      0.996100000000     0.767900000000     0.342800000000     0.00228112 
C        C      0.992400000000     0.633400000000     0.337000000000     0.00228112 
C        C      0.065000000000     0.570300000000     0.279300000000     0.00228112 
C        C      0.133500000000     0.643700000000     0.227500000000     0.00228112 
C        C      0.913800000000     0.552300000000     0.391300000000     0.00228112 
C        C      0.838100000000     0.601300000000     0.445900000000     0.00228112 
C        C      0.753900000000     0.531400000000     0.501600000000     0.00228112 
C        C      0.690500000000     0.605700000000     0.558500000000     0.00228112 
C        C      0.609500000000     0.553700000000     0.612500000000     0.00228112 
C        C      0.589600000000     0.425100000000     0.613800000000     0.00228112 
C        C      0.651900000000     0.349300000000     0.556400000000     0.00228112 
C        C      0.733100000000     0.404000000000     0.500400000000     0.00228112 
C        C      0.498500000000     0.394000000000     0.677500000000     0.00228112 
C        C      0.462400000000     0.284700000000     0.696300000000     0.00228112 
C        C      0.364400000000     0.262800000000     0.759100000000     0.00228112 
C        C      0.290400000000     0.355200000000     0.810800000000     0.00228112 
C        C      0.206200000000     0.306800000000     0.867000000000     0.00228112 
C        C      0.260300000000     0.091100000000     0.824200000000     0.00228112 
C        C      0.345400000000     0.132800000000     0.766900000000     0.00228112 
C        C      0.527000000000     0.740200000000     0.993670000000     0.00228112 
C        C      0.608700000000     0.589600000000     0.020160000000     0.00228112 
C        C      0.741900000000     0.514500000000     0.984900000000     0.00228112 
C        C      0.791500000000     0.589300000000     0.923980000000     0.00228112 
C        C      0.707900000000     0.738300000000     0.897140000000     0.00228112 
C        C      0.576700000000     0.813600000000     0.932050000000     0.00228112 
C        C      0.386600000000     0.824900000000     0.031410000000     0.00228112 
C        C      0.835200000000     0.352700000000     0.013230000000     0.00228112 
S        S      0.240470000000     0.175540000000     0.188200000000     0.494601   
S        S      0.759530000000     0.824460000000     0.811800000000     0.494601   
N        N      0.870600000000     0.218500000000     0.769520000000    -0.179881   
N        N      0.808900000000     0.823800000000     0.125760000000    -0.179881   
N        N      0.129400000000     0.781500000000     0.230480000000    -0.179881   
N        N      0.191100000000     0.176200000000     0.874240000000    -0.179881   
O        O      0.685600000000     0.042100000000     0.998580000000    -0.31439    
O        O      0.649500000000     0.238400000000     0.908570000000    -0.31439    
O        O      0.047000000000     0.701100000000     0.025000000000    -0.31439    
O        O      0.206700000000     0.715800000000     0.931940000000    -0.31439    
O        O      0.287600000000     0.016800000000     0.183010000000    -0.31439    
O        O      0.331400000000     0.192700000000     0.244550000000    -0.31439    
O        O      0.077600000000     0.246200000000     0.194520000000    -0.31439    
O        O      0.981400000000     0.987500000000     0.925820000000    -0.31439    
O        O      0.314400000000     0.957900000000     0.001420000000    -0.31439    
O        O      0.350500000000     0.761600000000     0.091430000000    -0.31439    
O        O      0.953000000000     0.298900000000     0.975000000000    -0.31439    
O        O      0.793300000000     0.284200000000     0.068060000000    -0.31439    
O        O      0.712400000000     0.983200000000     0.816990000000    -0.31439    
O        O      0.668600000000     0.807300000000     0.755450000000    -0.31439    
O        O      0.922400000000     0.753800000000     0.805480000000    -0.31439    
O        O      0.018600000000     0.012500000000     0.074180000000    -0.31439    


