data_YUWHOO_original

_audit_creation_method RASPA-1.0
_audit_creation_date 2022-1-28
_audit_author_name 'Felipe Lopes de Oliveira <felipe.lopes.oliveira@ibm.com>'

_cell_length_a    10.821
_cell_length_b    12.169
_cell_length_c    12.1945
_cell_angle_alpha 119.482
_cell_angle_beta  116.339
_cell_angle_gamma 90
_cell_volume      1202.66

_symmetry_cell_setting          triclinic
_symmetry_space_group_name_Hall 'P 1'
_symmetry_space_group_name_H-M  'P 1'
_symmetry_Int_Tables_number     1

_symmetry_equiv_pos_as_xyz 'x,y,z'

loop_
_atom_site_label
_atom_site_type_symbol
_atom_site_fract_x
_atom_site_fract_y
_atom_site_fract_z
_atom_site_charge
Ga       Ga     0.000000000000     0.500000000000     0.500000000000     1.95594    
Ga       Ga     0.500000000000     0.000000000000     0.500000000000     1.95594    
Ga       Ga     0.500000000000     0.500000000000     0.000000000000     1.95594    
Ga       Ga     0.500000000000     0.000000000000     0.000000000000     1.95594    
H        H      0.286000000000     0.581000000000     0.782000000000    -0.0284836  
H        H      0.013000000000     0.250000000000     0.538000000000    -0.0284836  
H        H      0.191000000000     0.260000000000     0.744000000000    -0.0284836  
H        H      0.728000000000     0.256000000000     0.332000000000    -0.0284836  
H        H      0.997000000000     0.272000000000     0.206000000000    -0.0284836  
H        H      0.791000000000     0.067000000000     0.996000000000    -0.0284836  
H        H      0.306000000000     0.446000000000     0.554000000000    -0.0284836  
H        H      0.075000000000     0.551000000000     0.296000000000    -0.0284836  
H        H      0.306000000000     0.539000000000     0.292000000000    -0.0284836  
H        H      0.749000000000     0.636000000000     0.984000000000    -0.0284836  
H        H      0.504000000000     0.919000000000     0.218000000000    -0.0284836  
H        H      0.475000000000     0.250000000000     0.462000000000    -0.0284836  
H        H      0.447000000000     0.240000000000     0.256000000000    -0.0284836  
H        H      0.396000000000     0.244000000000     0.668000000000    -0.0284836  
H        H      0.791000000000     0.228000000000     0.794000000000    -0.0284836  
H        H      0.795000000000     0.433000000000     0.004000000000    -0.0284836  
H        H      0.752000000000     0.054000000000     0.446000000000    -0.0284836  
H        H      0.779000000000     0.949000000000     0.704000000000    -0.0284836  
H        H      0.014000000000     0.961000000000     0.708000000000    -0.0284836  
H        H      0.765000000000     0.864000000000     0.016000000000    -0.0284836  
H        H      0.714000000000     0.419000000000     0.218000000000    -0.0284836  
H        H      0.987000000000     0.750000000000     0.462000000000    -0.0284836  
H        H      0.809000000000     0.740000000000     0.256000000000    -0.0284836  
H        H      0.272000000000     0.744000000000     0.668000000000    -0.0284836  
H        H      0.003000000000     0.728000000000     0.794000000000    -0.0284836  
H        H      0.209000000000     0.933000000000     0.004000000000    -0.0284836  
H        H      0.694000000000     0.554000000000     0.446000000000    -0.0284836  
H        H      0.925000000000     0.449000000000     0.704000000000    -0.0284836  
H        H      0.694000000000     0.461000000000     0.708000000000    -0.0284836  
H        H      0.251000000000     0.364000000000     0.016000000000    -0.0284836  
H        H      0.496000000000     0.081000000000     0.782000000000    -0.0284836  
H        H      0.525000000000     0.750000000000     0.538000000000    -0.0284836  
H        H      0.553000000000     0.760000000000     0.744000000000    -0.0284836  
H        H      0.604000000000     0.756000000000     0.332000000000    -0.0284836  
H        H      0.209000000000     0.772000000000     0.206000000000    -0.0284836  
H        H      0.205000000000     0.567000000000     0.996000000000    -0.0284836  
H        H      0.248000000000     0.946000000000     0.554000000000    -0.0284836  
H        H      0.221000000000     0.051000000000     0.296000000000    -0.0284836  
H        H      0.986000000000     0.039000000000     0.292000000000    -0.0284836  
H        H      0.235000000000     0.136000000000     0.984000000000    -0.0284836  
H        H      0.419000000000     0.750000000000     0.000000000000    -0.0284836  
H        H      0.581000000000     0.250000000000     0.000000000000    -0.0284836  
C        C      0.245260000000     0.499800000000     0.749920000000     0.0686372  
C        C      0.195380000000     0.315000000000     0.723960000000     0.0686372  
C        C      0.085610000000     0.314600000000     0.610020000000     0.0686372  
C        C      0.768750000000     0.229500000000     0.269900000000     0.0686372  
C        C      0.805910000000     0.131600000000     0.089420000000     0.0686372  
C        C      0.917100000000     0.242600000000     0.201200000000     0.0686372  
C        C      0.281120000000     0.476400000000     0.494240000000     0.0686372  
C        C      0.276780000000     0.524400000000     0.344960000000     0.0686372  
C        C      0.153040000000     0.533100000000     0.348080000000     0.0686372  
C        C      0.686210000000     0.690800000000     0.992420000000     0.0686372  
C        C      0.495340000000     0.000200000000     0.250080000000     0.0686372  
C        C      0.471420000000     0.185000000000     0.276040000000     0.0686372  
C        C      0.475590000000     0.185400000000     0.389980000000     0.0686372  
C        C      0.498850000000     0.270500000000     0.730100000000     0.0686372  
C        C      0.716490000000     0.368400000000     0.910580000000     0.0686372  
C        C      0.715900000000     0.257400000000     0.798800000000     0.0686372  
C        C      0.786880000000     0.023600000000     0.505760000000     0.0686372  
C        C      0.931820000000     0.975600000000     0.655040000000     0.0686372  
C        C      0.804960000000     0.966900000000     0.651920000000     0.0686372  
C        C      0.693790000000     0.809200000000     0.007580000000     0.0686372  
C        C      0.754740000000     0.500200000000     0.250080000000     0.0686372  
C        C      0.804620000000     0.685000000000     0.276040000000     0.0686372  
C        C      0.914390000000     0.685400000000     0.389980000000     0.0686372  
C        C      0.231250000000     0.770500000000     0.730100000000     0.0686372  
C        C      0.194090000000     0.868400000000     0.910580000000     0.0686372  
C        C      0.082900000000     0.757400000000     0.798800000000     0.0686372  
C        C      0.718880000000     0.523600000000     0.505760000000     0.0686372  
C        C      0.723220000000     0.475600000000     0.655040000000     0.0686372  
C        C      0.846960000000     0.466900000000     0.651920000000     0.0686372  
C        C      0.313790000000     0.309200000000     0.007580000000     0.0686372  
C        C      0.504660000000     0.999800000000     0.749920000000     0.0686372  
C        C      0.528580000000     0.815000000000     0.723960000000     0.0686372  
C        C      0.524410000000     0.814600000000     0.610020000000     0.0686372  
C        C      0.501150000000     0.729500000000     0.269900000000     0.0686372  
C        C      0.283510000000     0.631600000000     0.089420000000     0.0686372  
C        C      0.284100000000     0.742600000000     0.201200000000     0.0686372  
C        C      0.213120000000     0.976400000000     0.494240000000     0.0686372  
C        C      0.068180000000     0.024400000000     0.344960000000     0.0686372  
C        C      0.195040000000     0.033100000000     0.348080000000     0.0686372  
C        C      0.306210000000     0.190800000000     0.992420000000     0.0686372  
C        C      0.502300000000     0.750000000000     0.000000000000     0.0686372  
C        C      0.497700000000     0.250000000000     0.000000000000     0.0686372  
N        N      0.116780000000     0.432200000000     0.626760000000    -0.33965    
N        N      0.299270000000     0.434300000000     0.813540000000    -0.33965    
N        N      0.892760000000     0.306600000000     0.316720000000    -0.33965    
N        N      0.709650000000     0.122900000000     0.132300000000    -0.33965    
N        N      0.155320000000     0.502900000000     0.443840000000    -0.33965    
N        N      0.357900000000     0.488200000000     0.438200000000    -0.33965    
N        N      0.564290000000     0.652800000000     0.989580000000    -0.33965    
N        N      0.490020000000     0.067800000000     0.373240000000    -0.33965    
N        N      0.485730000000     0.065700000000     0.186460000000    -0.33965    
N        N      0.576040000000     0.193400000000     0.683280000000    -0.33965    
N        N      0.577350000000     0.377100000000     0.867700000000    -0.33965    
N        N      0.711480000000     0.997100000000     0.556160000000    -0.33965    
N        N      0.919700000000     0.011800000000     0.561800000000    -0.33965    
N        N      0.574710000000     0.847200000000     0.010420000000    -0.33965    
N        N      0.883220000000     0.567800000000     0.373240000000    -0.33965    
N        N      0.700730000000     0.565700000000     0.186460000000    -0.33965    
N        N      0.107240000000     0.693400000000     0.683280000000    -0.33965    
N        N      0.290350000000     0.877100000000     0.867700000000    -0.33965    
N        N      0.844680000000     0.497100000000     0.556160000000    -0.33965    
N        N      0.642100000000     0.511800000000     0.561800000000    -0.33965    
N        N      0.435710000000     0.347200000000     0.010420000000    -0.33965    
N        N      0.509980000000     0.932200000000     0.626760000000    -0.33965    
N        N      0.514270000000     0.934300000000     0.813540000000    -0.33965    
N        N      0.423960000000     0.806600000000     0.316720000000    -0.33965    
N        N      0.422650000000     0.622900000000     0.132300000000    -0.33965    
N        N      0.288520000000     0.002900000000     0.443840000000    -0.33965    
N        N      0.080300000000     0.988200000000     0.438200000000    -0.33965    
N        N      0.425290000000     0.152800000000     0.989580000000    -0.33965    


