data_ZARZAV_original

_audit_creation_method RASPA-1.0
_audit_creation_date 2022-1-31
_audit_author_name 'Felipe Lopes de Oliveira <felipe.lopes.oliveira@ibm.com>'

_cell_length_a    11.7527
_cell_length_b    12.4829
_cell_length_c    16.6089
_cell_angle_alpha 90
_cell_angle_beta  90.477
_cell_angle_gamma 90
_cell_volume      2436.57

_symmetry_cell_setting          triclinic
_symmetry_space_group_name_Hall 'P 1'
_symmetry_space_group_name_H-M  'P 1'
_symmetry_Int_Tables_number     1

_symmetry_equiv_pos_as_xyz 'x,y,z'

loop_
_atom_site_label
_atom_site_type_symbol
_atom_site_fract_x
_atom_site_fract_y
_atom_site_fract_z
_atom_site_charge
Zn       Zn     0.648650000000     0.751970000000     0.749470000000     0.442341   
Zn       Zn     0.351350000000     0.248030000000     0.250530000000     0.442341   
Zn       Zn     0.851350000000     0.251970000000     0.750530000000     0.442341   
Zn       Zn     0.148650000000     0.748030000000     0.249470000000     0.442341   
H        H      0.735700000000     0.739400000000     0.577300000000     0.105348   
H        H      0.819500000000     0.923900000000     0.757000000000     0.105348   
H        H      0.878600000000     0.807300000000     0.500700000000     0.105348   
H        H      0.959200000000     0.002800000000     0.683700000000     0.105348   
H        H      0.077100000000     0.005100000000     0.566400000000     0.105348   
H        H      0.070700000000     0.907800000000     0.506600000000     0.105348   
H        H      0.075000000000     0.484800000000     0.933900000000     0.105348   
H        H      0.078400000000     0.586100000000     0.990000000000     0.105348   
H        H      0.963500000000     0.500100000000     0.812100000000     0.105348   
H        H      0.886800000000     0.692000000000     0.996800000000     0.105348   
H        H      0.823300000000     0.583100000000     0.738200000000     0.105348   
H        H      0.746100000000     0.766900000000     0.918800000000     0.105348   
H        H      0.264300000000     0.260600000000     0.422700000000     0.105348   
H        H      0.180500000000     0.076100000000     0.243000000000     0.105348   
H        H      0.121400000000     0.192700000000     0.499300000000     0.105348   
H        H      0.040800000000     0.997200000000     0.316300000000     0.105348   
H        H      0.922900000000     0.994900000000     0.433600000000     0.105348   
H        H      0.929300000000     0.092200000000     0.493400000000     0.105348   
H        H      0.925000000000     0.515200000000     0.066100000000     0.105348   
H        H      0.921600000000     0.413900000000     0.010000000000     0.105348   
H        H      0.036500000000     0.499900000000     0.187900000000     0.105348   
H        H      0.113200000000     0.308000000000     0.003200000000     0.105348   
H        H      0.176700000000     0.416900000000     0.261800000000     0.105348   
H        H      0.253900000000     0.233100000000     0.081200000000     0.105348   
H        H      0.764300000000     0.239400000000     0.922700000000     0.105348   
H        H      0.680500000000     0.423900000000     0.743000000000     0.105348   
H        H      0.621400000000     0.307300000000     0.999300000000     0.105348   
H        H      0.540800000000     0.502800000000     0.816300000000     0.105348   
H        H      0.422900000000     0.505100000000     0.933600000000     0.105348   
H        H      0.429300000000     0.407800000000     0.993400000000     0.105348   
H        H      0.425000000000     0.984800000000     0.566100000000     0.105348   
H        H      0.421600000000     0.086100000000     0.510000000000     0.105348   
H        H      0.536500000000     0.000100000000     0.687900000000     0.105348   
H        H      0.613200000000     0.192000000000     0.503200000000     0.105348   
H        H      0.676700000000     0.083100000000     0.761800000000     0.105348   
H        H      0.753900000000     0.266900000000     0.581200000000     0.105348   
H        H      0.235700000000     0.760600000000     0.077300000000     0.105348   
H        H      0.319500000000     0.576100000000     0.257000000000     0.105348   
H        H      0.378600000000     0.692700000000     0.000700000000     0.105348   
H        H      0.459200000000     0.497200000000     0.183700000000     0.105348   
H        H      0.577100000000     0.494900000000     0.066400000000     0.105348   
H        H      0.570700000000     0.592200000000     0.006600000000     0.105348   
H        H      0.575000000000     0.015200000000     0.433900000000     0.105348   
H        H      0.578400000000     0.913900000000     0.490000000000     0.105348   
H        H      0.463500000000     0.999900000000     0.312100000000     0.105348   
H        H      0.386800000000     0.808000000000     0.496800000000     0.105348   
H        H      0.323300000000     0.916900000000     0.238200000000     0.105348   
H        H      0.246100000000     0.733100000000     0.418800000000     0.105348   
C        C      0.533300000000     0.660900000000     0.627500000000     0.0645413  
C        C      0.514700000000     0.575100000000     0.563900000000     0.0645413  
C        C      0.412900000000     0.564900000000     0.522300000000     0.0645413  
C        C      0.398300000000     0.492200000000     0.460500000000     0.0645413  
C        C      0.524400000000     0.975800000000     0.078100000000     0.0645413  
C        C      0.541800000000     0.901200000000     0.018800000000     0.0645413  
C        C      0.517600000000     0.923100000000     0.938000000000     0.0645413  
C        C      0.537100000000     0.839700000000     0.872800000000     0.0645413  
C        C      0.782600000000     0.792000000000     0.599400000000     0.0645413  
C        C      0.831000000000     0.901000000000     0.704500000000     0.0645413  
C        C      0.867500000000     0.833200000000     0.552600000000     0.0645413  
C        C      0.915800000000     0.948100000000     0.661100000000     0.0645413  
C        C      0.936500000000     0.913400000000     0.582700000000     0.0645413  
C        C      0.026300000000     0.963500000000     0.532300000000     0.0645413  
C        C      0.028800000000     0.532300000000     0.966400000000     0.0645413  
C        C      0.941000000000     0.585700000000     0.914000000000     0.0645413  
C        C      0.920400000000     0.554300000000     0.835200000000     0.0645413  
C        C      0.874600000000     0.667400000000     0.944600000000     0.0645413  
C        C      0.835000000000     0.604100000000     0.791300000000     0.0645413  
C        C      0.790100000000     0.712300000000     0.897100000000     0.0645413  
C        C      0.466700000000     0.339100000000     0.372500000000     0.0645413  
C        C      0.485300000000     0.424900000000     0.436100000000     0.0645413  
C        C      0.587100000000     0.435100000000     0.477700000000     0.0645413  
C        C      0.601700000000     0.507800000000     0.539500000000     0.0645413  
C        C      0.475600000000     0.024200000000     0.921900000000     0.0645413  
C        C      0.458200000000     0.098800000000     0.981200000000     0.0645413  
C        C      0.482400000000     0.076900000000     0.062000000000     0.0645413  
C        C      0.462900000000     0.160300000000     0.127200000000     0.0645413  
C        C      0.217400000000     0.208000000000     0.400600000000     0.0645413  
C        C      0.169000000000     0.099000000000     0.295500000000     0.0645413  
C        C      0.132500000000     0.166800000000     0.447400000000     0.0645413  
C        C      0.084200000000     0.051900000000     0.338900000000     0.0645413  
C        C      0.063500000000     0.086600000000     0.417300000000     0.0645413  
C        C      0.973700000000     0.036500000000     0.467700000000     0.0645413  
C        C      0.971200000000     0.467700000000     0.033600000000     0.0645413  
C        C      0.059000000000     0.414300000000     0.086000000000     0.0645413  
C        C      0.079600000000     0.445700000000     0.164800000000     0.0645413  
C        C      0.125400000000     0.332600000000     0.055400000000     0.0645413  
C        C      0.165000000000     0.395900000000     0.208700000000     0.0645413  
C        C      0.209900000000     0.287700000000     0.102900000000     0.0645413  
C        C      0.966700000000     0.160900000000     0.872500000000     0.0645413  
C        C      0.985300000000     0.075100000000     0.936100000000     0.0645413  
C        C      0.087100000000     0.064900000000     0.977700000000     0.0645413  
C        C      0.101700000000     0.992200000000     0.039500000000     0.0645413  
C        C      0.975600000000     0.475800000000     0.421900000000     0.0645413  
C        C      0.958200000000     0.401200000000     0.481200000000     0.0645413  
C        C      0.982400000000     0.423100000000     0.562000000000     0.0645413  
C        C      0.962900000000     0.339700000000     0.627200000000     0.0645413  
C        C      0.717400000000     0.292000000000     0.900600000000     0.0645413  
C        C      0.669000000000     0.401000000000     0.795500000000     0.0645413  
C        C      0.632500000000     0.333200000000     0.947400000000     0.0645413  
C        C      0.584200000000     0.448100000000     0.838900000000     0.0645413  
C        C      0.563500000000     0.413400000000     0.917300000000     0.0645413  
C        C      0.473700000000     0.463500000000     0.967700000000     0.0645413  
C        C      0.471200000000     0.032300000000     0.533600000000     0.0645413  
C        C      0.559000000000     0.085700000000     0.586000000000     0.0645413  
C        C      0.579600000000     0.054300000000     0.664800000000     0.0645413  
C        C      0.625400000000     0.167400000000     0.555400000000     0.0645413  
C        C      0.665000000000     0.104100000000     0.708700000000     0.0645413  
C        C      0.709900000000     0.212300000000     0.602900000000     0.0645413  
C        C      0.033300000000     0.839100000000     0.127500000000     0.0645413  
C        C      0.014700000000     0.924900000000     0.063900000000     0.0645413  
C        C      0.912900000000     0.935100000000     0.022300000000     0.0645413  
C        C      0.898300000000     0.007800000000     0.960500000000     0.0645413  
C        C      0.024400000000     0.524200000000     0.578100000000     0.0645413  
C        C      0.041800000000     0.598800000000     0.518800000000     0.0645413  
C        C      0.017600000000     0.576900000000     0.438000000000     0.0645413  
C        C      0.037100000000     0.660300000000     0.372800000000     0.0645413  
C        C      0.282600000000     0.708000000000     0.099400000000     0.0645413  
C        C      0.331000000000     0.599000000000     0.204500000000     0.0645413  
C        C      0.367500000000     0.666800000000     0.052600000000     0.0645413  
C        C      0.415800000000     0.551900000000     0.161100000000     0.0645413  
C        C      0.436500000000     0.586600000000     0.082700000000     0.0645413  
C        C      0.526300000000     0.536500000000     0.032300000000     0.0645413  
C        C      0.528800000000     0.967700000000     0.466400000000     0.0645413  
C        C      0.441000000000     0.914300000000     0.414000000000     0.0645413  
C        C      0.420400000000     0.945700000000     0.335200000000     0.0645413  
C        C      0.374600000000     0.832600000000     0.444600000000     0.0645413  
C        C      0.335000000000     0.895900000000     0.291300000000     0.0645413  
C        C      0.290100000000     0.787700000000     0.397100000000     0.0645413  
N        N      0.763600000000     0.823500000000     0.675100000000    -0.177523   
N        N      0.768500000000     0.680900000000     0.821200000000    -0.177523   
N        N      0.236400000000     0.176500000000     0.324900000000    -0.177523   
N        N      0.231500000000     0.319100000000     0.178800000000    -0.177523   
N        N      0.736400000000     0.323500000000     0.824900000000    -0.177523   
N        N      0.731500000000     0.180900000000     0.678800000000    -0.177523   
N        N      0.263600000000     0.676500000000     0.175100000000    -0.177523   
N        N      0.268500000000     0.819100000000     0.321200000000    -0.177523   
O        O      0.587400000000     0.629300000000     0.690700000000    -0.267004   
O        O      0.501200000000     0.753000000000     0.614600000000    -0.267004   
O        O      0.593200000000     0.872800000000     0.812470000000    -0.267004   
O        O      0.504300000000     0.747500000000     0.883020000000    -0.267004   
O        O      0.412600000000     0.370700000000     0.309300000000    -0.267004   
O        O      0.498800000000     0.247000000000     0.385400000000    -0.267004   
O        O      0.406800000000     0.127200000000     0.187530000000    -0.267004   
O        O      0.495700000000     0.252500000000     0.116980000000    -0.267004   
O        O      0.912600000000     0.129300000000     0.809300000000    -0.267004   
O        O      0.998800000000     0.253000000000     0.885400000000    -0.267004   
O        O      0.906800000000     0.372800000000     0.687530000000    -0.267004   
O        O      0.995700000000     0.247500000000     0.616980000000    -0.267004   
O        O      0.087400000000     0.870700000000     0.190700000000    -0.267004   
O        O      0.001200000000     0.747000000000     0.114600000000    -0.267004   
O        O      0.093200000000     0.627200000000     0.312470000000    -0.267004   
O        O      0.004300000000     0.752500000000     0.383020000000    -0.267004   
F        F      0.322200000000     0.622700000000     0.544640000000    -0.39357    
F        F      0.294500000000     0.486400000000     0.425580000000    -0.39357    
F        F      0.551400000000     0.947600000000     0.154290000000    -0.39357    
F        F      0.586600000000     0.806100000000     0.039000000000    -0.39357    
F        F      0.677800000000     0.377300000000     0.455360000000    -0.39357    
F        F      0.705500000000     0.513600000000     0.574420000000    -0.39357    
F        F      0.448600000000     0.052400000000     0.845710000000    -0.39357    
F        F      0.413400000000     0.193900000000     0.961000000000    -0.39357    
F        F      0.177800000000     0.122700000000     0.955360000000    -0.39357    
F        F      0.205500000000     0.986400000000     0.074420000000    -0.39357    
F        F      0.948600000000     0.447600000000     0.345710000000    -0.39357    
F        F      0.913400000000     0.306100000000     0.461000000000    -0.39357    
F        F      0.822200000000     0.877300000000     0.044640000000    -0.39357    
F        F      0.794500000000     0.013600000000     0.925580000000    -0.39357    
F        F      0.051400000000     0.552400000000     0.654290000000    -0.39357    
F        F      0.086600000000     0.693900000000     0.539000000000    -0.39357    


