data_ZEDHIB_original

_audit_creation_method RASPA-1.0
_audit_creation_date 2022-1-30
_audit_author_name 'Felipe Lopes de Oliveira <felipe.lopes.oliveira@ibm.com>'

_cell_length_a    9.4272
_cell_length_b    18.662
_cell_length_c    20.461
_cell_angle_alpha 90
_cell_angle_beta  90
_cell_angle_gamma 90
_cell_volume      3599.71

_symmetry_cell_setting          triclinic
_symmetry_space_group_name_Hall 'P 1'
_symmetry_space_group_name_H-M  'P 1'
_symmetry_Int_Tables_number     1

_symmetry_equiv_pos_as_xyz 'x,y,z'

loop_
_atom_site_label
_atom_site_type_symbol
_atom_site_fract_x
_atom_site_fract_y
_atom_site_fract_z
_atom_site_charge
Zn       Zn     0.746520000000     0.365530000000     0.332620000000     0.461725   
Zn       Zn     0.448650000000     0.272380000000     0.383520000000     0.461725   
Zn       Zn     0.643990000000     0.677360000000     0.075960000000     0.461725   
Zn       Zn     0.746520000000     0.634470000000     0.667380000000     0.461725   
Zn       Zn     0.448650000000     0.727620000000     0.616480000000     0.461725   
Zn       Zn     0.643990000000     0.322640000000     0.924040000000     0.461725   
Zn       Zn     0.246520000000     0.865530000000     0.167380000000     0.461725   
Zn       Zn     0.948650000000     0.772380000000     0.116480000000     0.461725   
Zn       Zn     0.143990000000     0.177360000000     0.424040000000     0.461725   
Zn       Zn     0.246520000000     0.134470000000     0.832620000000     0.461725   
Zn       Zn     0.948650000000     0.227620000000     0.883520000000     0.461725   
Zn       Zn     0.143990000000     0.822640000000     0.575960000000     0.461725   
H        H      0.690000000000     0.242500000000     0.363000000000     0.076599   
H        H      0.180000000000     0.286000000000     0.379000000000     0.076599   
H        H      0.188500000000     0.232600000000     0.071300000000     0.076599   
H        H      0.530000000000     0.527700000000     0.230500000000     0.076599   
H        H      0.153100000000     0.602000000000     0.172500000000     0.076599   
H        H      0.044100000000     0.514100000000     0.234100000000     0.076599   
H        H      0.174900000000     0.432900000000     0.293000000000     0.076599   
H        H      0.238500000000     0.428600000000     0.426400000000     0.076599   
H        H      0.716500000000     0.096500000000     0.456100000000     0.076599   
H        H      0.995000000000     0.286200000000     0.266300000000     0.076599   
H        H      0.040200000000     0.365800000000     0.088000000000     0.076599   
H        H      0.853000000000     0.441600000000     0.107200000000     0.076599   
H        H      0.734900000000     0.435600000000     0.206100000000     0.076599   
H        H      0.122700000000     0.219100000000     0.175500000000     0.076599   
H        H      0.228800000000     0.279600000000     0.195000000000     0.076599   
H        H      0.385200000000     0.257200000000     0.999600000000     0.076599   
H        H      0.327100000000     0.375400000000     0.158900000000     0.076599   
H        H      0.514300000000     0.444900000000     0.127900000000     0.076599   
H        H      0.636700000000     0.417700000000     0.033700000000     0.076599   
H        H      0.690000000000     0.757500000000     0.637000000000     0.076599   
H        H      0.180000000000     0.714000000000     0.621000000000     0.076599   
H        H      0.188500000000     0.767400000000     0.928700000000     0.076599   
H        H      0.530000000000     0.472300000000     0.769500000000     0.076599   
H        H      0.153100000000     0.398000000000     0.827500000000     0.076599   
H        H      0.044100000000     0.485900000000     0.765900000000     0.076599   
H        H      0.174900000000     0.567100000000     0.707000000000     0.076599   
H        H      0.238500000000     0.571400000000     0.573600000000     0.076599   
H        H      0.716500000000     0.903500000000     0.543900000000     0.076599   
H        H      0.995000000000     0.713800000000     0.733700000000     0.076599   
H        H      0.040200000000     0.634200000000     0.912000000000     0.076599   
H        H      0.853000000000     0.558400000000     0.892800000000     0.076599   
H        H      0.734900000000     0.564400000000     0.793900000000     0.076599   
H        H      0.122700000000     0.780900000000     0.824500000000     0.076599   
H        H      0.228800000000     0.720400000000     0.805000000000     0.076599   
H        H      0.385200000000     0.742800000000     0.000400000000     0.076599   
H        H      0.327100000000     0.624600000000     0.841100000000     0.076599   
H        H      0.514300000000     0.555100000000     0.872100000000     0.076599   
H        H      0.636700000000     0.582300000000     0.966300000000     0.076599   
H        H      0.190000000000     0.742500000000     0.137000000000     0.076599   
H        H      0.680000000000     0.786000000000     0.121000000000     0.076599   
H        H      0.688500000000     0.732600000000     0.428700000000     0.076599   
H        H      0.030000000000     0.027700000000     0.269500000000     0.076599   
H        H      0.653100000000     0.102000000000     0.327500000000     0.076599   
H        H      0.544100000000     0.014100000000     0.265900000000     0.076599   
H        H      0.674900000000     0.932900000000     0.207000000000     0.076599   
H        H      0.738500000000     0.928600000000     0.073600000000     0.076599   
H        H      0.216500000000     0.596500000000     0.043900000000     0.076599   
H        H      0.495000000000     0.786200000000     0.233700000000     0.076599   
H        H      0.540200000000     0.865800000000     0.412000000000     0.076599   
H        H      0.353000000000     0.941600000000     0.392800000000     0.076599   
H        H      0.234900000000     0.935600000000     0.293900000000     0.076599   
H        H      0.622700000000     0.719100000000     0.324500000000     0.076599   
H        H      0.728800000000     0.779600000000     0.305000000000     0.076599   
H        H      0.885200000000     0.757200000000     0.500400000000     0.076599   
H        H      0.827100000000     0.875400000000     0.341100000000     0.076599   
H        H      0.014300000000     0.944900000000     0.372100000000     0.076599   
H        H      0.136700000000     0.917700000000     0.466300000000     0.076599   
H        H      0.190000000000     0.257500000000     0.863000000000     0.076599   
H        H      0.680000000000     0.214000000000     0.879000000000     0.076599   
H        H      0.688500000000     0.267400000000     0.571300000000     0.076599   
H        H      0.030000000000     0.972300000000     0.730500000000     0.076599   
H        H      0.653100000000     0.898000000000     0.672500000000     0.076599   
H        H      0.544100000000     0.985900000000     0.734100000000     0.076599   
H        H      0.674900000000     0.067100000000     0.793000000000     0.076599   
H        H      0.738500000000     0.071400000000     0.926400000000     0.076599   
H        H      0.216500000000     0.403500000000     0.956100000000     0.076599   
H        H      0.495000000000     0.213800000000     0.766300000000     0.076599   
H        H      0.540200000000     0.134200000000     0.588000000000     0.076599   
H        H      0.353000000000     0.058400000000     0.607200000000     0.076599   
H        H      0.234900000000     0.064400000000     0.706100000000     0.076599   
H        H      0.622700000000     0.280900000000     0.675500000000     0.076599   
H        H      0.728800000000     0.220400000000     0.695000000000     0.076599   
H        H      0.885200000000     0.242800000000     0.499600000000     0.076599   
H        H      0.827100000000     0.124600000000     0.658900000000     0.076599   
H        H      0.014300000000     0.055100000000     0.627900000000     0.076599   
H        H      0.136700000000     0.082300000000     0.533700000000     0.076599   
H        H      0.866700000000     0.500000000000     0.500000000000     0.076599   
H        H      0.357700000000     0.500000000000     0.500000000000     0.076599   
H        H      0.366700000000     0.000000000000     0.000000000000     0.076599   
H        H      0.857700000000     0.000000000000     0.000000000000     0.076599   
H        H      0.349200000000     0.000000000000     0.500000000000     0.076599   
H        H      0.839900000000     0.000000000000     0.500000000000     0.076599   
H        H      0.849200000000     0.500000000000     0.000000000000     0.076599   
H        H      0.339900000000     0.500000000000     0.000000000000     0.076599   
C        C      0.457400000000     0.419600000000     0.305400000000     0.0275331  
C        C      0.368400000000     0.472600000000     0.268700000000     0.0275331  
C        C      0.431500000000     0.524900000000     0.231300000000     0.0275331  
C        C      0.353100000000     0.573600000000     0.194800000000     0.0275331  
C        C      0.207500000000     0.569600000000     0.196200000000     0.0275331  
C        C      0.142600000000     0.516800000000     0.233300000000     0.0275331  
C        C      0.220400000000     0.468300000000     0.268900000000     0.0275331  
C        C      0.428300000000     0.626700000000     0.151700000000     0.0275331  
C        C      0.960600000000     0.413000000000     0.406600000000     0.0275331  
C        C      0.040300000000     0.457200000000     0.455400000000     0.0275331  
C        C      0.188300000000     0.457100000000     0.455600000000     0.0275331  
C        C      0.435800000000     0.120500000000     0.447300000000     0.0275331  
C        C      0.520600000000     0.057900000000     0.473500000000     0.0275331  
C        C      0.667200000000     0.057900000000     0.473600000000     0.0275331  
C        C      0.964400000000     0.317000000000     0.233400000000     0.0275331  
C        C      0.034800000000     0.316800000000     0.173900000000     0.0275331  
C        C      0.992700000000     0.364000000000     0.127900000000     0.0275331  
C        C      0.881600000000     0.409100000000     0.139000000000     0.0275331  
C        C      0.812100000000     0.405700000000     0.198400000000     0.0275331  
C        C      0.155200000000     0.266800000000     0.164000000000     0.0275331  
C        C      0.412700000000     0.294700000000     0.026800000000     0.0275331  
C        C      0.334600000000     0.306500000000     0.083900000000     0.0275331  
C        C      0.376200000000     0.364400000000     0.120800000000     0.0275331  
C        C      0.487400000000     0.405800000000     0.102600000000     0.0275331  
C        C      0.560300000000     0.389300000000     0.046100000000     0.0275331  
C        C      0.457400000000     0.580400000000     0.694600000000     0.0275331  
C        C      0.368400000000     0.527400000000     0.731300000000     0.0275331  
C        C      0.431500000000     0.475100000000     0.768700000000     0.0275331  
C        C      0.353100000000     0.426400000000     0.805200000000     0.0275331  
C        C      0.207500000000     0.430400000000     0.803800000000     0.0275331  
C        C      0.142600000000     0.483200000000     0.766700000000     0.0275331  
C        C      0.220400000000     0.531700000000     0.731100000000     0.0275331  
C        C      0.428300000000     0.373300000000     0.848300000000     0.0275331  
C        C      0.960600000000     0.587000000000     0.593400000000     0.0275331  
C        C      0.040300000000     0.542800000000     0.544600000000     0.0275331  
C        C      0.188300000000     0.542900000000     0.544400000000     0.0275331  
C        C      0.435800000000     0.879500000000     0.552700000000     0.0275331  
C        C      0.520600000000     0.942100000000     0.526500000000     0.0275331  
C        C      0.667200000000     0.942100000000     0.526400000000     0.0275331  
C        C      0.964400000000     0.683000000000     0.766600000000     0.0275331  
C        C      0.034800000000     0.683200000000     0.826100000000     0.0275331  
C        C      0.992700000000     0.636000000000     0.872100000000     0.0275331  
C        C      0.881600000000     0.590900000000     0.861000000000     0.0275331  
C        C      0.812100000000     0.594300000000     0.801600000000     0.0275331  
C        C      0.155200000000     0.733200000000     0.836000000000     0.0275331  
C        C      0.412700000000     0.705300000000     0.973200000000     0.0275331  
C        C      0.334600000000     0.693500000000     0.916100000000     0.0275331  
C        C      0.376200000000     0.635600000000     0.879200000000     0.0275331  
C        C      0.487400000000     0.594200000000     0.897400000000     0.0275331  
C        C      0.560300000000     0.610700000000     0.953900000000     0.0275331  
C        C      0.957400000000     0.919600000000     0.194600000000     0.0275331  
C        C      0.868400000000     0.972600000000     0.231300000000     0.0275331  
C        C      0.931500000000     0.024900000000     0.268700000000     0.0275331  
C        C      0.853100000000     0.073600000000     0.305200000000     0.0275331  
C        C      0.707500000000     0.069600000000     0.303800000000     0.0275331  
C        C      0.642600000000     0.016800000000     0.266700000000     0.0275331  
C        C      0.720400000000     0.968300000000     0.231100000000     0.0275331  
C        C      0.928300000000     0.126700000000     0.348300000000     0.0275331  
C        C      0.460600000000     0.913000000000     0.093400000000     0.0275331  
C        C      0.540300000000     0.957200000000     0.044600000000     0.0275331  
C        C      0.688300000000     0.957100000000     0.044400000000     0.0275331  
C        C      0.935800000000     0.620500000000     0.052700000000     0.0275331  
C        C      0.020600000000     0.557900000000     0.026500000000     0.0275331  
C        C      0.167200000000     0.557900000000     0.026400000000     0.0275331  
C        C      0.464400000000     0.817000000000     0.266600000000     0.0275331  
C        C      0.534800000000     0.816800000000     0.326100000000     0.0275331  
C        C      0.492700000000     0.864000000000     0.372100000000     0.0275331  
C        C      0.381600000000     0.909100000000     0.361000000000     0.0275331  
C        C      0.312100000000     0.905700000000     0.301600000000     0.0275331  
C        C      0.655200000000     0.766800000000     0.336000000000     0.0275331  
C        C      0.912700000000     0.794700000000     0.473200000000     0.0275331  
C        C      0.834600000000     0.806500000000     0.416100000000     0.0275331  
C        C      0.876200000000     0.864400000000     0.379200000000     0.0275331  
C        C      0.987400000000     0.905800000000     0.397400000000     0.0275331  
C        C      0.060300000000     0.889300000000     0.453900000000     0.0275331  
C        C      0.957400000000     0.080400000000     0.805400000000     0.0275331  
C        C      0.868400000000     0.027400000000     0.768700000000     0.0275331  
C        C      0.931500000000     0.975100000000     0.731300000000     0.0275331  
C        C      0.853100000000     0.926400000000     0.694800000000     0.0275331  
C        C      0.707500000000     0.930400000000     0.696200000000     0.0275331  
C        C      0.642600000000     0.983200000000     0.733300000000     0.0275331  
C        C      0.720400000000     0.031700000000     0.768900000000     0.0275331  
C        C      0.928300000000     0.873300000000     0.651700000000     0.0275331  
C        C      0.460600000000     0.087000000000     0.906600000000     0.0275331  
C        C      0.540300000000     0.042800000000     0.955400000000     0.0275331  
C        C      0.688300000000     0.042900000000     0.955600000000     0.0275331  
C        C      0.935800000000     0.379500000000     0.947300000000     0.0275331  
C        C      0.020600000000     0.442100000000     0.973500000000     0.0275331  
C        C      0.167200000000     0.442100000000     0.973600000000     0.0275331  
C        C      0.464400000000     0.183000000000     0.733400000000     0.0275331  
C        C      0.534800000000     0.183200000000     0.673900000000     0.0275331  
C        C      0.492700000000     0.136000000000     0.627900000000     0.0275331  
C        C      0.381600000000     0.090900000000     0.639000000000     0.0275331  
C        C      0.312100000000     0.094300000000     0.698400000000     0.0275331  
C        C      0.655200000000     0.233200000000     0.664000000000     0.0275331  
C        C      0.912700000000     0.205300000000     0.526800000000     0.0275331  
C        C      0.834600000000     0.193500000000     0.583900000000     0.0275331  
C        C      0.876200000000     0.135600000000     0.620800000000     0.0275331  
C        C      0.987400000000     0.094200000000     0.602600000000     0.0275331  
C        C      0.060300000000     0.110700000000     0.546100000000     0.0275331  
C        C      0.965400000000     0.500000000000     0.500000000000     0.0275331  
C        C      0.259100000000     0.500000000000     0.500000000000     0.0275331  
C        C      0.465400000000     0.000000000000     0.000000000000     0.0275331  
C        C      0.759100000000     0.000000000000     0.000000000000     0.0275331  
C        C      0.447800000000     0.000000000000     0.500000000000     0.0275331  
C        C      0.741300000000     0.000000000000     0.500000000000     0.0275331  
C        C      0.947800000000     0.500000000000     0.000000000000     0.0275331  
C        C      0.241300000000     0.500000000000     0.000000000000     0.0275331  
N        N      0.854200000000     0.360000000000     0.245000000000    -0.156898   
N        N      0.220500000000     0.262500000000     0.099700000000    -0.156898   
N        N      0.524500000000     0.334000000000     0.009000000000    -0.156898   
N        N      0.854200000000     0.640000000000     0.755000000000    -0.156898   
N        N      0.220500000000     0.737500000000     0.900300000000    -0.156898   
N        N      0.524500000000     0.666000000000     0.991000000000    -0.156898   
N        N      0.354200000000     0.860000000000     0.255000000000    -0.156898   
N        N      0.720500000000     0.762500000000     0.400300000000    -0.156898   
N        N      0.024500000000     0.834000000000     0.491000000000    -0.156898   
N        N      0.354200000000     0.140000000000     0.745000000000    -0.156898   
N        N      0.720500000000     0.237500000000     0.599700000000    -0.156898   
N        N      0.024500000000     0.166000000000     0.509000000000    -0.156898   
O        O      0.589300000000     0.430000000000     0.304000000000    -0.326645   
O        O      0.397800000000     0.369800000000     0.334800000000    -0.326645   
O        O      0.558700000000     0.611900000000     0.139400000000    -0.326645   
O        O      0.367900000000     0.678900000000     0.129400000000    -0.326645   
O        O      0.833300000000     0.433200000000     0.394500000000    -0.326645   
O        O      0.016000000000     0.360500000000     0.381000000000    -0.326645   
O        O      0.501900000000     0.172500000000     0.426200000000    -0.326645   
O        O      0.302600000000     0.113800000000     0.450100000000    -0.326645   
O        O      0.652500000000     0.283940000000     0.363700000000    -0.326645   
O        O      0.241500000000     0.259600000000     0.397100000000    -0.326645   
O        O      0.589300000000     0.570000000000     0.696000000000    -0.326645   
O        O      0.397800000000     0.630200000000     0.665200000000    -0.326645   
O        O      0.558700000000     0.388100000000     0.860600000000    -0.326645   
O        O      0.367900000000     0.321100000000     0.870600000000    -0.326645   
O        O      0.833300000000     0.566800000000     0.605500000000    -0.326645   
O        O      0.016000000000     0.639500000000     0.619000000000    -0.326645   
O        O      0.501900000000     0.827500000000     0.573800000000    -0.326645   
O        O      0.302600000000     0.886200000000     0.549900000000    -0.326645   
O        O      0.652500000000     0.716060000000     0.636300000000    -0.326645   
O        O      0.241500000000     0.740400000000     0.602900000000    -0.326645   
O        O      0.089300000000     0.930000000000     0.196000000000    -0.326645   
O        O      0.897800000000     0.869800000000     0.165200000000    -0.326645   
O        O      0.058700000000     0.111900000000     0.360600000000    -0.326645   
O        O      0.867900000000     0.178900000000     0.370600000000    -0.326645   
O        O      0.333300000000     0.933200000000     0.105500000000    -0.326645   
O        O      0.516000000000     0.860500000000     0.119000000000    -0.326645   
O        O      0.001900000000     0.672500000000     0.073800000000    -0.326645   
O        O      0.802600000000     0.613800000000     0.049900000000    -0.326645   
O        O      0.152500000000     0.783940000000     0.136300000000    -0.326645   
O        O      0.741500000000     0.759600000000     0.102900000000    -0.326645   
O        O      0.089300000000     0.070000000000     0.804000000000    -0.326645   
O        O      0.897800000000     0.130200000000     0.834800000000    -0.326645   
O        O      0.058700000000     0.888100000000     0.639400000000    -0.326645   
O        O      0.867900000000     0.821100000000     0.629400000000    -0.326645   
O        O      0.333300000000     0.066800000000     0.894500000000    -0.326645   
O        O      0.516000000000     0.139500000000     0.881000000000    -0.326645   
O        O      0.001900000000     0.327500000000     0.926200000000    -0.326645   
O        O      0.802600000000     0.386200000000     0.950100000000    -0.326645   
O        O      0.152500000000     0.216060000000     0.863700000000    -0.326645   
O        O      0.741500000000     0.240400000000     0.897100000000    -0.326645   


