data_ZERQOE_original

_audit_creation_method RASPA-1.0
_audit_creation_date 2022-1-30
_audit_author_name 'Felipe Lopes de Oliveira <felipe.lopes.oliveira@ibm.com>'

_cell_length_a    5.5418
_cell_length_b    11.8831
_cell_length_c    22.6515
_cell_angle_alpha 101.607
_cell_angle_beta  90
_cell_angle_gamma 90
_cell_volume      1461.18

_symmetry_cell_setting          triclinic
_symmetry_space_group_name_Hall 'P 1'
_symmetry_space_group_name_H-M  'P 1'
_symmetry_Int_Tables_number     1

_symmetry_equiv_pos_as_xyz 'x,y,z'

loop_
_atom_site_label
_atom_site_type_symbol
_atom_site_fract_x
_atom_site_fract_y
_atom_site_fract_z
_atom_site_charge
Ca       Ca     0.765260000000     0.602270000000     0.042090000000     1.56998    
Ca       Ca     0.265260000000     0.897730000000     0.457910000000     1.56998    
Ca       Ca     0.234740000000     0.397730000000     0.957910000000     1.56998    
Ca       Ca     0.734740000000     0.102270000000     0.542090000000     1.56998    
H        H      0.212300000000     0.107500000000     0.119000000000     0.0450531  
H        H      0.211700000000     0.977600000000     0.214100000000     0.0450531  
H        H      0.573000000000     0.824000000000     0.166000000000     0.0450531  
H        H      0.123600000000     0.279800000000     0.090200000000     0.0450531  
H        H      0.489200000000     0.827300000000     0.267200000000     0.0450531  
H        H      0.131000000000     0.974300000000     0.314500000000     0.0450531  
H        H      0.561500000000     0.983400000000     0.059000000000     0.0450531  
H        H      0.472700000000     0.157500000000     0.031800000000     0.0450531  
H        H      0.712300000000     0.392500000000     0.381000000000     0.0450531  
H        H      0.711700000000     0.522400000000     0.285900000000     0.0450531  
H        H      0.073000000000     0.676000000000     0.334000000000     0.0450531  
H        H      0.623600000000     0.220200000000     0.409800000000     0.0450531  
H        H      0.989200000000     0.672700000000     0.232800000000     0.0450531  
H        H      0.631000000000     0.525700000000     0.185500000000     0.0450531  
H        H      0.061500000000     0.516600000000     0.441000000000     0.0450531  
H        H      0.972700000000     0.342500000000     0.468200000000     0.0450531  
H        H      0.787700000000     0.892500000000     0.881000000000     0.0450531  
H        H      0.788300000000     0.022400000000     0.785900000000     0.0450531  
H        H      0.427000000000     0.176000000000     0.834000000000     0.0450531  
H        H      0.876400000000     0.720200000000     0.909800000000     0.0450531  
H        H      0.510800000000     0.172700000000     0.732800000000     0.0450531  
H        H      0.869000000000     0.025700000000     0.685500000000     0.0450531  
H        H      0.438500000000     0.016600000000     0.941000000000     0.0450531  
H        H      0.527300000000     0.842500000000     0.968200000000     0.0450531  
H        H      0.287700000000     0.607500000000     0.619000000000     0.0450531  
H        H      0.288300000000     0.477600000000     0.714100000000     0.0450531  
H        H      0.927000000000     0.324000000000     0.666000000000     0.0450531  
H        H      0.376400000000     0.779800000000     0.590200000000     0.0450531  
H        H      0.010800000000     0.327300000000     0.767200000000     0.0450531  
H        H      0.369000000000     0.474300000000     0.814500000000     0.0450531  
H        H      0.938500000000     0.483400000000     0.559000000000     0.0450531  
H        H      0.027300000000     0.657500000000     0.531800000000     0.0450531  
C        C      0.754200000000     0.891940000000     0.365720000000     0.0330711  
C        C      0.732900000000     0.344090000000     0.035830000000     0.0330711  
C        C      0.066100000000     0.117200000000     0.100490000000     0.0330711  
C        C      0.069000000000     0.945700000000     0.224760000000     0.0330711  
C        C      0.684100000000     0.854100000000     0.195750000000     0.0330711  
C        C      0.902600000000     0.898610000000     0.181050000000     0.0330711  
C        C      0.011900000000     0.220200000000     0.083610000000     0.0330711  
C        C      0.635400000000     0.855660000000     0.256340000000     0.0330711  
C        C      0.803300000000     0.899270000000     0.300590000000     0.0330711  
C        C      0.791600000000     0.234700000000     0.056890000000     0.0330711  
C        C      0.019200000000     0.944600000000     0.284820000000     0.0330711  
C        C      0.898200000000     0.028720000000     0.089340000000     0.0330711  
C        C      0.674500000000     0.042500000000     0.064620000000     0.0330711  
C        C      0.622200000000     0.146700000000     0.048410000000     0.0330711  
C        C      0.254200000000     0.608060000000     0.134280000000     0.0330711  
C        C      0.232900000000     0.155910000000     0.464170000000     0.0330711  
C        C      0.566100000000     0.382800000000     0.399510000000     0.0330711  
C        C      0.569000000000     0.554300000000     0.275240000000     0.0330711  
C        C      0.184100000000     0.645900000000     0.304250000000     0.0330711  
C        C      0.402600000000     0.601390000000     0.318950000000     0.0330711  
C        C      0.511900000000     0.279800000000     0.416390000000     0.0330711  
C        C      0.135400000000     0.644340000000     0.243660000000     0.0330711  
C        C      0.303300000000     0.600730000000     0.199410000000     0.0330711  
C        C      0.291600000000     0.265300000000     0.443110000000     0.0330711  
C        C      0.519200000000     0.555400000000     0.215180000000     0.0330711  
C        C      0.398200000000     0.471280000000     0.410660000000     0.0330711  
C        C      0.174500000000     0.457500000000     0.435380000000     0.0330711  
C        C      0.122200000000     0.353300000000     0.451590000000     0.0330711  
C        C      0.245800000000     0.108060000000     0.634280000000     0.0330711  
C        C      0.267100000000     0.655910000000     0.964170000000     0.0330711  
C        C      0.933900000000     0.882800000000     0.899510000000     0.0330711  
C        C      0.931000000000     0.054300000000     0.775240000000     0.0330711  
C        C      0.315900000000     0.145900000000     0.804250000000     0.0330711  
C        C      0.097400000000     0.101390000000     0.818950000000     0.0330711  
C        C      0.988100000000     0.779800000000     0.916390000000     0.0330711  
C        C      0.364600000000     0.144340000000     0.743660000000     0.0330711  
C        C      0.196700000000     0.100730000000     0.699410000000     0.0330711  
C        C      0.208400000000     0.765300000000     0.943110000000     0.0330711  
C        C      0.980800000000     0.055400000000     0.715180000000     0.0330711  
C        C      0.101800000000     0.971280000000     0.910660000000     0.0330711  
C        C      0.325500000000     0.957500000000     0.935380000000     0.0330711  
C        C      0.377800000000     0.853300000000     0.951590000000     0.0330711  
C        C      0.745800000000     0.391940000000     0.865720000000     0.0330711  
C        C      0.767100000000     0.844090000000     0.535830000000     0.0330711  
C        C      0.433900000000     0.617200000000     0.600490000000     0.0330711  
C        C      0.431000000000     0.445700000000     0.724760000000     0.0330711  
C        C      0.815900000000     0.354100000000     0.695750000000     0.0330711  
C        C      0.597400000000     0.398610000000     0.681050000000     0.0330711  
C        C      0.488100000000     0.720200000000     0.583610000000     0.0330711  
C        C      0.864600000000     0.355660000000     0.756340000000     0.0330711  
C        C      0.696700000000     0.399270000000     0.800590000000     0.0330711  
C        C      0.708400000000     0.734700000000     0.556890000000     0.0330711  
C        C      0.480800000000     0.444600000000     0.784820000000     0.0330711  
C        C      0.601800000000     0.528720000000     0.589340000000     0.0330711  
C        C      0.825500000000     0.542500000000     0.564620000000     0.0330711  
C        C      0.877800000000     0.646700000000     0.548410000000     0.0330711  
S        S      0.975820000000     0.892860000000     0.104710000000     0.313412   
S        S      0.475820000000     0.607140000000     0.395290000000     0.313412   
S        S      0.024180000000     0.107140000000     0.895290000000     0.313412   
S        S      0.524180000000     0.392860000000     0.604710000000     0.313412   
O        O      0.516600000000     0.368400000000     0.029710000000    -0.451135   
O        O      0.232700000000     0.879360000000     0.098160000000    -0.451135   
O        O      0.817200000000     0.810140000000     0.067860000000    -0.451135   
O        O      0.538600000000     0.882100000000     0.380090000000    -0.451135   
O        O      0.908200000000     0.407270000000     0.027010000000    -0.451135   
O        O      0.933600000000     0.893510000000     0.399090000000    -0.451135   
O        O      0.016600000000     0.131600000000     0.470290000000    -0.451135   
O        O      0.732700000000     0.620640000000     0.401840000000    -0.451135   
O        O      0.317200000000     0.689860000000     0.432140000000    -0.451135   
O        O      0.038600000000     0.617900000000     0.119910000000    -0.451135   
O        O      0.408200000000     0.092730000000     0.472990000000    -0.451135   
O        O      0.433600000000     0.606490000000     0.100910000000    -0.451135   
O        O      0.483400000000     0.631600000000     0.970290000000    -0.451135   
O        O      0.767300000000     0.120640000000     0.901840000000    -0.451135   
O        O      0.182800000000     0.189860000000     0.932140000000    -0.451135   
O        O      0.461400000000     0.117900000000     0.619910000000    -0.451135   
O        O      0.091800000000     0.592730000000     0.972990000000    -0.451135   
O        O      0.066400000000     0.106490000000     0.600910000000    -0.451135   
O        O      0.983400000000     0.868400000000     0.529710000000    -0.451135   
O        O      0.267300000000     0.379360000000     0.598160000000    -0.451135   
O        O      0.682800000000     0.310140000000     0.567860000000    -0.451135   
O        O      0.961400000000     0.382100000000     0.880090000000    -0.451135   
O        O      0.591800000000     0.907270000000     0.527010000000    -0.451135   
O        O      0.566400000000     0.393510000000     0.899090000000    -0.451135   


