data_ZIF-7_original

_audit_creation_method RASPA-1.0
_audit_creation_date 2022-1-29
_audit_author_name 'Felipe Lopes de Oliveira <felipe.lopes.oliveira@ibm.com>'

_cell_length_a    14.2749
_cell_length_b    14.2749
_cell_length_c    14.2749
_cell_angle_alpha 107.264
_cell_angle_beta  107.264
_cell_angle_gamma 107.264
_cell_volume      2404.85

_symmetry_cell_setting          triclinic
_symmetry_space_group_name_Hall 'P 1'
_symmetry_space_group_name_H-M  'P 1'
_symmetry_Int_Tables_number     1

_symmetry_equiv_pos_as_xyz 'x,y,z'

loop_
_atom_site_label
_atom_site_type_symbol
_atom_site_fract_x
_atom_site_fract_y
_atom_site_fract_z
_atom_site_charge
Zn       Zn     0.986500000000     0.259830000000     0.728870000000     0.341139   
Zn       Zn     0.013500000000     0.740170000000     0.271130000000     0.341139   
Zn       Zn     0.728870000000     0.986500000000     0.259830000000     0.341139   
Zn       Zn     0.271130000000     0.013500000000     0.740170000000     0.341139   
Zn       Zn     0.259830000000     0.728870000000     0.986500000000     0.341139   
Zn       Zn     0.740170000000     0.271130000000     0.013500000000     0.341139   
H        H      0.089800000000     0.495900000000     0.898300000000     0.0376251  
H        H      0.910200000000     0.504100000000     0.101700000000     0.0376251  
H        H      0.898300000000     0.089800000000     0.495900000000     0.0376251  
H        H      0.101700000000     0.910200000000     0.504100000000     0.0376251  
H        H      0.495900000000     0.898300000000     0.089800000000     0.0376251  
H        H      0.504100000000     0.101700000000     0.910200000000     0.0376251  
H        H      0.131600000000     0.305700000000     0.588300000000     0.0376251  
H        H      0.868400000000     0.694300000000     0.411700000000     0.0376251  
H        H      0.588300000000     0.131600000000     0.305700000000     0.0376251  
H        H      0.411700000000     0.868400000000     0.694300000000     0.0376251  
H        H      0.305700000000     0.588300000000     0.131600000000     0.0376251  
H        H      0.694300000000     0.411700000000     0.868400000000     0.0376251  
H        H      0.259500000000     0.398400000000     0.542000000000     0.0376251  
H        H      0.740500000000     0.601600000000     0.458000000000     0.0376251  
H        H      0.542000000000     0.259500000000     0.398400000000     0.0376251  
H        H      0.458000000000     0.740500000000     0.601600000000     0.0376251  
H        H      0.398400000000     0.542000000000     0.259500000000     0.0376251  
H        H      0.601600000000     0.458000000000     0.740500000000     0.0376251  
H        H      0.369500000000     0.582500000000     0.644500000000     0.0376251  
H        H      0.630500000000     0.417500000000     0.355500000000     0.0376251  
H        H      0.644500000000     0.369500000000     0.582500000000     0.0376251  
H        H      0.355500000000     0.630500000000     0.417500000000     0.0376251  
H        H      0.582500000000     0.644500000000     0.369500000000     0.0376251  
H        H      0.417500000000     0.355500000000     0.630500000000     0.0376251  
H        H      0.797400000000     0.354700000000     0.677900000000     0.0376251  
H        H      0.202600000000     0.645300000000     0.322100000000     0.0376251  
H        H      0.677900000000     0.797400000000     0.354700000000     0.0376251  
H        H      0.322100000000     0.202600000000     0.645300000000     0.0376251  
H        H      0.354700000000     0.677900000000     0.797400000000     0.0376251  
H        H      0.645300000000     0.322100000000     0.202600000000     0.0376251  
H        H      0.197400000000     0.211500000000     0.752300000000     0.0376251  
H        H      0.802600000000     0.788500000000     0.247700000000     0.0376251  
H        H      0.752300000000     0.197400000000     0.211500000000     0.0376251  
H        H      0.247700000000     0.802600000000     0.788500000000     0.0376251  
H        H      0.211500000000     0.752300000000     0.197400000000     0.0376251  
H        H      0.788500000000     0.247700000000     0.802600000000     0.0376251  
H        H      0.821800000000     0.020200000000     0.655300000000     0.0376251  
H        H      0.178200000000     0.979800000000     0.344700000000     0.0376251  
H        H      0.655300000000     0.821800000000     0.020200000000     0.0376251  
H        H      0.344700000000     0.178200000000     0.979800000000     0.0376251  
H        H      0.020200000000     0.655300000000     0.821800000000     0.0376251  
H        H      0.979800000000     0.344700000000     0.178200000000     0.0376251  
H        H      0.166300000000     0.328400000000     0.955700000000     0.0376251  
H        H      0.833700000000     0.671600000000     0.044300000000     0.0376251  
H        H      0.955700000000     0.166300000000     0.328400000000     0.0376251  
H        H      0.044300000000     0.833700000000     0.671600000000     0.0376251  
H        H      0.328400000000     0.955700000000     0.166300000000     0.0376251  
H        H      0.671600000000     0.044300000000     0.833700000000     0.0376251  
H        H      0.752000000000     0.841600000000     0.620500000000     0.0376251  
H        H      0.248000000000     0.158400000000     0.379500000000     0.0376251  
H        H      0.620500000000     0.752000000000     0.841600000000     0.0376251  
H        H      0.379500000000     0.248000000000     0.158400000000     0.0376251  
H        H      0.841600000000     0.620500000000     0.752000000000     0.0376251  
H        H      0.158400000000     0.379500000000     0.248000000000     0.0376251  
H        H      0.253700000000     0.371900000000     0.140400000000     0.0376251  
H        H      0.746300000000     0.628100000000     0.859600000000     0.0376251  
H        H      0.140400000000     0.253700000000     0.371900000000     0.0376251  
H        H      0.859600000000     0.746300000000     0.628100000000     0.0376251  
H        H      0.371900000000     0.140400000000     0.253700000000     0.0376251  
H        H      0.628100000000     0.859600000000     0.746300000000     0.0376251  
C        C      0.124200000000     0.494700000000     0.852200000000    -0.00171237 
C        C      0.875800000000     0.505300000000     0.147800000000    -0.00171237 
C        C      0.852200000000     0.124200000000     0.494700000000    -0.00171237 
C        C      0.147800000000     0.875800000000     0.505300000000    -0.00171237 
C        C      0.494700000000     0.852200000000     0.124200000000    -0.00171237 
C        C      0.505300000000     0.147800000000     0.875800000000    -0.00171237 
C        C      0.164800000000     0.437200000000     0.718800000000    -0.00171237 
C        C      0.835200000000     0.562800000000     0.281200000000    -0.00171237 
C        C      0.718800000000     0.164800000000     0.437200000000    -0.00171237 
C        C      0.281200000000     0.835200000000     0.562800000000    -0.00171237 
C        C      0.437200000000     0.718800000000     0.164800000000    -0.00171237 
C        C      0.562800000000     0.281200000000     0.835200000000    -0.00171237 
C        C      0.174900000000     0.379300000000     0.629200000000    -0.00171237 
C        C      0.825100000000     0.620700000000     0.370800000000    -0.00171237 
C        C      0.629200000000     0.174900000000     0.379300000000    -0.00171237 
C        C      0.370800000000     0.825100000000     0.620700000000    -0.00171237 
C        C      0.379300000000     0.629200000000     0.174900000000    -0.00171237 
C        C      0.620700000000     0.370800000000     0.825100000000    -0.00171237 
C        C      0.251300000000     0.435100000000     0.602600000000    -0.00171237 
C        C      0.748700000000     0.564900000000     0.397400000000    -0.00171237 
C        C      0.602600000000     0.251300000000     0.435100000000    -0.00171237 
C        C      0.397400000000     0.748700000000     0.564900000000    -0.00171237 
C        C      0.435100000000     0.602600000000     0.251300000000    -0.00171237 
C        C      0.564900000000     0.397400000000     0.748700000000    -0.00171237 
C        C      0.318600000000     0.547300000000     0.665200000000    -0.00171237 
C        C      0.681400000000     0.452700000000     0.334800000000    -0.00171237 
C        C      0.665200000000     0.318600000000     0.547300000000    -0.00171237 
C        C      0.334800000000     0.681400000000     0.452700000000    -0.00171237 
C        C      0.547300000000     0.665200000000     0.318600000000    -0.00171237 
C        C      0.452700000000     0.334800000000     0.681400000000    -0.00171237 
C        C      0.781100000000     0.231500000000     0.548600000000    -0.00171237 
C        C      0.218900000000     0.768500000000     0.451400000000    -0.00171237 
C        C      0.548600000000     0.781100000000     0.231500000000    -0.00171237 
C        C      0.451400000000     0.218900000000     0.768500000000    -0.00171237 
C        C      0.231500000000     0.548600000000     0.781100000000    -0.00171237 
C        C      0.768500000000     0.451400000000     0.218900000000    -0.00171237 
C        C      0.755300000000     0.309900000000     0.604600000000    -0.00171237 
C        C      0.244700000000     0.690100000000     0.395400000000    -0.00171237 
C        C      0.604600000000     0.755300000000     0.309900000000    -0.00171237 
C        C      0.395400000000     0.244700000000     0.690100000000    -0.00171237 
C        C      0.309900000000     0.604600000000     0.755300000000    -0.00171237 
C        C      0.690100000000     0.395400000000     0.244700000000    -0.00171237 
C        C      0.138600000000     0.148000000000     0.732700000000    -0.00171237 
C        C      0.861400000000     0.852000000000     0.267300000000    -0.00171237 
C        C      0.732700000000     0.138600000000     0.148000000000    -0.00171237 
C        C      0.267300000000     0.861400000000     0.852000000000    -0.00171237 
C        C      0.148000000000     0.732700000000     0.138600000000    -0.00171237 
C        C      0.852000000000     0.267300000000     0.861400000000    -0.00171237 
C        C      0.979100000000     0.039500000000     0.689600000000    -0.00171237 
C        C      0.020900000000     0.960500000000     0.310400000000    -0.00171237 
C        C      0.689600000000     0.979100000000     0.039500000000    -0.00171237 
C        C      0.310400000000     0.020900000000     0.960500000000    -0.00171237 
C        C      0.039500000000     0.689600000000     0.979100000000    -0.00171237 
C        C      0.960500000000     0.310400000000     0.020900000000    -0.00171237 
C        C      0.866200000000     0.984100000000     0.659900000000    -0.00171237 
C        C      0.133800000000     0.015900000000     0.340100000000    -0.00171237 
C        C      0.659900000000     0.866200000000     0.984100000000    -0.00171237 
C        C      0.340100000000     0.133800000000     0.015900000000    -0.00171237 
C        C      0.984100000000     0.659900000000     0.866200000000    -0.00171237 
C        C      0.015900000000     0.340100000000     0.133800000000    -0.00171237 
C        C      0.015700000000     0.307100000000     0.957200000000    -0.00171237 
C        C      0.984300000000     0.692900000000     0.042800000000    -0.00171237 
C        C      0.957200000000     0.015700000000     0.307100000000    -0.00171237 
C        C      0.042800000000     0.984300000000     0.692900000000    -0.00171237 
C        C      0.307100000000     0.957200000000     0.015700000000    -0.00171237 
C        C      0.692900000000     0.042800000000     0.984300000000    -0.00171237 
C        C      0.129300000000     0.330600000000     0.999500000000    -0.00171237 
C        C      0.870700000000     0.669400000000     0.000500000000    -0.00171237 
C        C      0.999500000000     0.129300000000     0.330600000000    -0.00171237 
C        C      0.000500000000     0.870700000000     0.669400000000    -0.00171237 
C        C      0.330600000000     0.999500000000     0.129300000000    -0.00171237 
C        C      0.669400000000     0.000500000000     0.870700000000    -0.00171237 
C        C      0.825200000000     0.877500000000     0.638600000000    -0.00171237 
C        C      0.174800000000     0.122500000000     0.361400000000    -0.00171237 
C        C      0.638600000000     0.825200000000     0.877500000000    -0.00171237 
C        C      0.361400000000     0.174800000000     0.122500000000    -0.00171237 
C        C      0.877500000000     0.638600000000     0.825200000000    -0.00171237 
C        C      0.122500000000     0.361400000000     0.174800000000    -0.00171237 
C        C      0.180800000000     0.357100000000     0.109600000000    -0.00171237 
C        C      0.819200000000     0.642900000000     0.890400000000    -0.00171237 
C        C      0.109600000000     0.180800000000     0.357100000000    -0.00171237 
C        C      0.890400000000     0.819200000000     0.642900000000    -0.00171237 
C        C      0.357100000000     0.109600000000     0.180800000000    -0.00171237 
C        C      0.642900000000     0.890400000000     0.819200000000    -0.00171237 
N        N      0.097800000000     0.404300000000     0.768000000000    -0.173354   
N        N      0.902200000000     0.595700000000     0.232000000000    -0.173354   
N        N      0.768000000000     0.097800000000     0.404300000000    -0.173354   
N        N      0.232000000000     0.902200000000     0.595700000000    -0.173354   
N        N      0.404300000000     0.768000000000     0.097800000000    -0.173354   
N        N      0.595700000000     0.232000000000     0.902200000000    -0.173354   
N        N      0.942800000000     0.278400000000     0.851200000000    -0.173354   
N        N      0.057200000000     0.721600000000     0.148800000000    -0.173354   
N        N      0.851200000000     0.942800000000     0.278400000000    -0.173354   
N        N      0.148800000000     0.057200000000     0.721600000000    -0.173354   
N        N      0.278400000000     0.851200000000     0.942800000000    -0.173354   
N        N      0.721600000000     0.148800000000     0.057200000000    -0.173354   
N        N      0.866700000000     0.203600000000     0.584200000000    -0.173354   
N        N      0.133300000000     0.796400000000     0.415800000000    -0.173354   
N        N      0.584200000000     0.866700000000     0.203600000000    -0.173354   
N        N      0.415800000000     0.133300000000     0.796400000000    -0.173354   
N        N      0.203600000000     0.584200000000     0.866700000000    -0.173354   
N        N      0.796400000000     0.415800000000     0.133300000000    -0.173354   
N        N      0.041600000000     0.145100000000     0.715000000000    -0.173354   
N        N      0.958400000000     0.854900000000     0.285000000000    -0.173354   
N        N      0.715000000000     0.041600000000     0.145100000000    -0.173354   
N        N      0.285000000000     0.958400000000     0.854900000000    -0.173354   
N        N      0.145100000000     0.715000000000     0.041600000000    -0.173354   
N        N      0.854900000000     0.285000000000     0.958400000000    -0.173354   


