data_ZIF-1_original

_audit_creation_method RASPA-1.0
_audit_creation_date 2022-1-31
_audit_author_name 'Felipe Lopes de Oliveira <felipe.lopes.oliveira@ibm.com>'

_cell_length_a    9.7405
_cell_length_b    14.936
_cell_length_c    15.266
_cell_angle_alpha 90
_cell_angle_beta  90
_cell_angle_gamma 98.62
_cell_volume      2195.87

_symmetry_cell_setting          triclinic
_symmetry_space_group_name_Hall 'P 1'
_symmetry_space_group_name_H-M  'P 1'
_symmetry_Int_Tables_number     1

_symmetry_equiv_pos_as_xyz 'x,y,z'

loop_
_atom_site_label
_atom_site_type_symbol
_atom_site_fract_x
_atom_site_fract_y
_atom_site_fract_z
_atom_site_charge
Zn       Zn     0.453172000000     0.738978000000     0.076070000000     0.339347   
Zn       Zn     0.546828000000     0.261022000000     0.923930000000     0.339347   
Zn       Zn     0.046828000000     0.761022000000     0.576070000000     0.339347   
Zn       Zn     0.953172000000     0.238978000000     0.423930000000     0.339347   
Zn       Zn     0.584530000000     0.920520000000     0.726053000000     0.339347   
Zn       Zn     0.415470000000     0.079480000000     0.273947000000     0.339347   
Zn       Zn     0.915470000000     0.579480000000     0.226053000000     0.339347   
Zn       Zn     0.084530000000     0.420520000000     0.773947000000     0.339347   
H        H      0.516600000000     0.899400000000     0.931800000000     0.0140165  
H        H      0.483400000000     0.100600000000     0.068200000000     0.0140165  
H        H      0.983400000000     0.600600000000     0.431800000000     0.0140165  
H        H      0.016600000000     0.399400000000     0.568200000000     0.0140165  
H        H      0.552400000000     0.644400000000     0.911900000000     0.0140165  
H        H      0.447600000000     0.355600000000     0.088100000000     0.0140165  
H        H      0.947600000000     0.855600000000     0.411900000000     0.0140165  
H        H      0.052400000000     0.144400000000     0.588100000000     0.0140165  
H        H      0.596200000000     0.714500000000     0.768300000000     0.0140165  
H        H      0.403800000000     0.285500000000     0.231700000000     0.0140165  
H        H      0.903800000000     0.785500000000     0.268300000000     0.0140165  
H        H      0.096200000000     0.214500000000     0.731700000000     0.0140165  
H        H      0.896400000000     0.040400000000     0.705400000000     0.0140165  
H        H      0.103600000000     0.959600000000     0.294600000000     0.0140165  
H        H      0.603600000000     0.459600000000     0.205400000000     0.0140165  
H        H      0.396400000000     0.540400000000     0.794600000000     0.0140165  
H        H      0.751700000000     0.799500000000     0.622300000000     0.0140165  
H        H      0.248300000000     0.200500000000     0.377700000000     0.0140165  
H        H      0.748300000000     0.700500000000     0.122300000000     0.0140165  
H        H      0.251700000000     0.299500000000     0.877700000000     0.0140165  
H        H      0.533300000000     0.913500000000     0.514200000000     0.0140165  
H        H      0.466700000000     0.086500000000     0.485800000000     0.0140165  
H        H      0.966700000000     0.586500000000     0.014200000000     0.0140165  
H        H      0.033300000000     0.413500000000     0.985800000000     0.0140165  
H        H      0.397400000000     0.065400000000     0.666100000000     0.0140165  
H        H      0.602600000000     0.934600000000     0.333900000000     0.0140165  
H        H      0.102600000000     0.434600000000     0.166100000000     0.0140165  
H        H      0.897400000000     0.565400000000     0.833900000000     0.0140165  
H        H      0.192900000000     0.647300000000     0.950900000000     0.0140165  
H        H      0.807100000000     0.352700000000     0.049100000000     0.0140165  
H        H      0.307100000000     0.852700000000     0.450900000000     0.0140165  
H        H      0.692900000000     0.147300000000     0.549100000000     0.0140165  
H        H      0.208500000000     0.695600000000     0.202000000000     0.0140165  
H        H      0.791500000000     0.304400000000     0.798000000000     0.0140165  
H        H      0.291500000000     0.804400000000     0.702000000000     0.0140165  
H        H      0.708500000000     0.195600000000     0.298000000000     0.0140165  
H        H      0.410600000000     0.529300000000     0.146100000000     0.0140165  
H        H      0.589400000000     0.470700000000     0.853900000000     0.0140165  
H        H      0.089400000000     0.970700000000     0.646100000000     0.0140165  
H        H      0.910600000000     0.029300000000     0.353900000000     0.0140165  
H        H      0.362600000000     0.924900000000     0.129100000000     0.0140165  
H        H      0.637400000000     0.075100000000     0.870900000000     0.0140165  
H        H      0.137400000000     0.575100000000     0.629100000000     0.0140165  
H        H      0.862600000000     0.424900000000     0.370900000000     0.0140165  
H        H      0.625600000000     0.797000000000     0.252000000000     0.0140165  
H        H      0.374400000000     0.203000000000     0.748000000000     0.0140165  
H        H      0.874400000000     0.703000000000     0.752000000000     0.0140165  
H        H      0.125600000000     0.297000000000     0.248000000000     0.0140165  
C        C      0.530080000000     0.843280000000     0.908010000000     0.0407897  
C        C      0.469920000000     0.156720000000     0.091990000000     0.0407897  
C        C      0.969920000000     0.656720000000     0.408010000000     0.0407897  
C        C      0.030080000000     0.343280000000     0.591990000000     0.0407897  
C        C      0.549220000000     0.705510000000     0.898660000000     0.0407897  
C        C      0.450780000000     0.294490000000     0.101340000000     0.0407897  
C        C      0.950780000000     0.794490000000     0.398660000000     0.0407897  
C        C      0.049220000000     0.205510000000     0.601340000000     0.0407897  
C        C      0.573700000000     0.744320000000     0.819340000000     0.0407897  
C        C      0.426300000000     0.255680000000     0.180660000000     0.0407897  
C        C      0.926300000000     0.755680000000     0.319340000000     0.0407897  
C        C      0.073700000000     0.244320000000     0.680660000000     0.0407897  
C        C      0.889300000000     0.981800000000     0.681620000000     0.0407897  
C        C      0.110700000000     0.018200000000     0.318380000000     0.0407897  
C        C      0.610700000000     0.518200000000     0.181620000000     0.0407897  
C        C      0.389300000000     0.481800000000     0.818380000000     0.0407897  
C        C      0.813680000000     0.852070000000     0.636130000000     0.0407897  
C        C      0.186320000000     0.147930000000     0.363870000000     0.0407897  
C        C      0.686320000000     0.647930000000     0.136130000000     0.0407897  
C        C      0.313680000000     0.352070000000     0.863870000000     0.0407897  
C        C      0.456460000000     0.883750000000     0.545300000000     0.0407897  
C        C      0.543540000000     0.116250000000     0.454700000000     0.0407897  
C        C      0.043540000000     0.616250000000     0.045300000000     0.0407897  
C        C      0.956460000000     0.383750000000     0.954700000000     0.0407897  
C        C      0.444100000000     0.083820000000     0.718420000000     0.0407897  
C        C      0.555900000000     0.916180000000     0.281580000000     0.0407897  
C        C      0.055900000000     0.416180000000     0.218420000000     0.0407897  
C        C      0.944100000000     0.583820000000     0.781580000000     0.0407897  
C        C      0.168000000000     0.650470000000     0.010150000000     0.0407897  
C        C      0.832000000000     0.349530000000     0.989850000000     0.0407897  
C        C      0.332000000000     0.849530000000     0.510150000000     0.0407897  
C        C      0.668000000000     0.150470000000     0.489850000000     0.0407897  
C        C      0.175580000000     0.676180000000     0.146220000000     0.0407897  
C        C      0.824420000000     0.323820000000     0.853780000000     0.0407897  
C        C      0.324420000000     0.823820000000     0.646220000000     0.0407897  
C        C      0.675580000000     0.176180000000     0.353780000000     0.0407897  
C        C      0.504030000000     0.556610000000     0.147930000000     0.0407897  
C        C      0.495970000000     0.443390000000     0.852070000000     0.0407897  
C        C      0.995970000000     0.943390000000     0.647930000000     0.0407897  
C        C      0.004030000000     0.056610000000     0.352070000000     0.0407897  
C        C      0.427090000000     0.910130000000     0.170490000000     0.0407897  
C        C      0.572910000000     0.089870000000     0.829510000000     0.0407897  
C        C      0.072910000000     0.589870000000     0.670490000000     0.0407897  
C        C      0.927090000000     0.410130000000     0.329510000000     0.0407897  
C        C      0.569090000000     0.840160000000     0.236240000000     0.0407897  
C        C      0.430910000000     0.159840000000     0.763760000000     0.0407897  
C        C      0.930910000000     0.659840000000     0.736240000000     0.0407897  
C        C      0.069090000000     0.340160000000     0.263760000000     0.0407897  
N        N      0.560810000000     0.833560000000     0.824950000000    -0.167046   
N        N      0.439190000000     0.166440000000     0.175050000000    -0.167046   
N        N      0.939190000000     0.666440000000     0.324950000000    -0.167046   
N        N      0.060810000000     0.333560000000     0.675050000000    -0.167046   
N        N      0.519390000000     0.768620000000     0.955780000000    -0.167046   
N        N      0.480610000000     0.231380000000     0.044220000000    -0.167046   
N        N      0.980610000000     0.731380000000     0.455780000000    -0.167046   
N        N      0.019390000000     0.268620000000     0.544220000000    -0.167046   
N        N      0.772280000000     0.922150000000     0.675260000000    -0.167046   
N        N      0.227720000000     0.077850000000     0.324740000000    -0.167046   
N        N      0.727720000000     0.577850000000     0.175260000000    -0.167046   
N        N      0.272280000000     0.422150000000     0.824740000000    -0.167046   
N        N      0.452160000000     0.868010000000     0.632790000000    -0.167046   
N        N      0.547840000000     0.131990000000     0.367210000000    -0.167046   
N        N      0.047840000000     0.631990000000     0.132790000000    -0.167046   
N        N      0.952160000000     0.368010000000     0.867210000000    -0.167046   
N        N      0.534490000000     0.038670000000     0.759940000000    -0.167046   
N        N      0.465510000000     0.961330000000     0.240060000000    -0.167046   
N        N      0.965510000000     0.461330000000     0.259940000000    -0.167046   
N        N      0.034490000000     0.538670000000     0.740060000000    -0.167046   
N        N      0.251110000000     0.690240000000     0.075500000000    -0.167046   
N        N      0.748890000000     0.309760000000     0.924500000000    -0.167046   
N        N      0.248890000000     0.809760000000     0.575500000000    -0.167046   
N        N      0.751110000000     0.190240000000     0.424500000000    -0.167046   
N        N      0.487140000000     0.836770000000     0.164390000000    -0.167046   
N        N      0.512860000000     0.163230000000     0.835610000000    -0.167046   
N        N      0.012860000000     0.663230000000     0.664390000000    -0.167046   
N        N      0.987140000000     0.336770000000     0.335610000000    -0.167046   
N        N      0.553300000000     0.639900000000     0.117710000000    -0.167046   
N        N      0.446700000000     0.360100000000     0.882290000000    -0.167046   
N        N      0.946700000000     0.860100000000     0.617710000000    -0.167046   
N        N      0.053300000000     0.139900000000     0.382290000000    -0.167046   


