data_ZIF-4_original

_audit_creation_method RASPA-1.0
_audit_creation_date 2022-1-30
_audit_author_name 'Felipe Lopes de Oliveira <felipe.lopes.oliveira@ibm.com>'

_cell_length_a    15.3073
_cell_length_b    15.395
_cell_length_c    18.426
_cell_angle_alpha 90
_cell_angle_beta  90
_cell_angle_gamma 90
_cell_volume      4342.2

_symmetry_cell_setting          triclinic
_symmetry_space_group_name_Hall 'P 1'
_symmetry_space_group_name_H-M  'P 1'
_symmetry_Int_Tables_number     1

_symmetry_equiv_pos_as_xyz 'x,y,z'

loop_
_atom_site_label
_atom_site_type_symbol
_atom_site_fract_x
_atom_site_fract_y
_atom_site_fract_z
_atom_site_charge
Zn       Zn     0.639490000000     0.702150000000     0.908302000000     0.339618   
Zn       Zn     0.836020000000     0.009635000000     0.813743000000     0.339618   
Zn       Zn     0.360510000000     0.797850000000     0.408302000000     0.339618   
Zn       Zn     0.163980000000     0.490365000000     0.313743000000     0.339618   
Zn       Zn     0.860510000000     0.202150000000     0.091698000000     0.339618   
Zn       Zn     0.663980000000     0.509635000000     0.186257000000     0.339618   
Zn       Zn     0.139490000000     0.297850000000     0.591698000000     0.339618   
Zn       Zn     0.336020000000     0.990365000000     0.686257000000     0.339618   
Zn       Zn     0.360510000000     0.297850000000     0.091698000000     0.339618   
Zn       Zn     0.163980000000     0.990365000000     0.186257000000     0.339618   
Zn       Zn     0.639490000000     0.202150000000     0.591698000000     0.339618   
Zn       Zn     0.836020000000     0.509635000000     0.686257000000     0.339618   
Zn       Zn     0.139490000000     0.797850000000     0.908302000000     0.339618   
Zn       Zn     0.336020000000     0.490365000000     0.813743000000     0.339618   
Zn       Zn     0.860510000000     0.702150000000     0.408302000000     0.339618   
Zn       Zn     0.663980000000     0.009635000000     0.313743000000     0.339618   
H        H      0.780100000000     0.821900000000     0.844800000000     0.0146027  
H        H      0.558000000000     0.899300000000     0.928000000000     0.0146027  
H        H      0.639500000000     0.028700000000     0.888100000000     0.0146027  
H        H      0.537400000000     0.739100000000     0.758300000000     0.0146027  
H        H      0.845400000000     0.637200000000     0.935700000000     0.0146027  
H        H      0.687000000000     0.597700000000     0.772400000000     0.0146027  
H        H      0.810800000000     0.064000000000     0.976400000000     0.0146027  
H        H      0.924500000000     0.057800000000     0.657900000000     0.0146027  
H        H      0.990000000000     0.938100000000     0.904600000000     0.0146027  
H        H      0.922300000000     0.857900000000     0.711700000000     0.0146027  
H        H      0.575000000000     0.785000000000     0.066100000000     0.0146027  
H        H      0.910600000000     0.203800000000     0.820800000000     0.0146027  
H        H      0.219900000000     0.678100000000     0.344800000000     0.0146027  
H        H      0.442000000000     0.600700000000     0.428000000000     0.0146027  
H        H      0.360500000000     0.471300000000     0.388100000000     0.0146027  
H        H      0.462600000000     0.760900000000     0.258300000000     0.0146027  
H        H      0.154600000000     0.862800000000     0.435700000000     0.0146027  
H        H      0.313000000000     0.902300000000     0.272400000000     0.0146027  
H        H      0.189200000000     0.436000000000     0.476400000000     0.0146027  
H        H      0.075500000000     0.442200000000     0.157900000000     0.0146027  
H        H      0.010000000000     0.561900000000     0.404600000000     0.0146027  
H        H      0.077700000000     0.642100000000     0.211700000000     0.0146027  
H        H      0.033800000000     0.323600000000     0.337300000000     0.0146027  
H        H      0.477200000000     0.746800000000     0.546000000000     0.0146027  
H        H      0.719900000000     0.321900000000     0.155200000000     0.0146027  
H        H      0.942000000000     0.399300000000     0.072000000000     0.0146027  
H        H      0.860500000000     0.528700000000     0.111900000000     0.0146027  
H        H      0.962600000000     0.239100000000     0.241700000000     0.0146027  
H        H      0.654600000000     0.137200000000     0.064300000000     0.0146027  
H        H      0.813000000000     0.097700000000     0.227600000000     0.0146027  
H        H      0.689200000000     0.564000000000     0.023600000000     0.0146027  
H        H      0.575500000000     0.557800000000     0.342100000000     0.0146027  
H        H      0.510000000000     0.438100000000     0.095400000000     0.0146027  
H        H      0.577700000000     0.357900000000     0.288300000000     0.0146027  
H        H      0.925000000000     0.285000000000     0.933900000000     0.0146027  
H        H      0.589400000000     0.703800000000     0.179200000000     0.0146027  
H        H      0.280100000000     0.178100000000     0.655200000000     0.0146027  
H        H      0.058000000000     0.100700000000     0.572000000000     0.0146027  
H        H      0.139500000000     0.971300000000     0.611900000000     0.0146027  
H        H      0.037400000000     0.260900000000     0.741700000000     0.0146027  
H        H      0.345400000000     0.362800000000     0.564300000000     0.0146027  
H        H      0.187000000000     0.402300000000     0.727600000000     0.0146027  
H        H      0.310800000000     0.936000000000     0.523600000000     0.0146027  
H        H      0.424500000000     0.942200000000     0.842100000000     0.0146027  
H        H      0.490000000000     0.061900000000     0.595400000000     0.0146027  
H        H      0.422300000000     0.142100000000     0.788300000000     0.0146027  
H        H      0.466200000000     0.823600000000     0.662700000000     0.0146027  
H        H      0.022800000000     0.246800000000     0.454000000000     0.0146027  
H        H      0.219900000000     0.178100000000     0.155200000000     0.0146027  
H        H      0.442000000000     0.100700000000     0.072000000000     0.0146027  
H        H      0.360500000000     0.971300000000     0.111900000000     0.0146027  
H        H      0.462600000000     0.260900000000     0.241700000000     0.0146027  
H        H      0.154600000000     0.362800000000     0.064300000000     0.0146027  
H        H      0.313000000000     0.402300000000     0.227600000000     0.0146027  
H        H      0.189200000000     0.936000000000     0.023600000000     0.0146027  
H        H      0.075500000000     0.942200000000     0.342100000000     0.0146027  
H        H      0.010000000000     0.061900000000     0.095400000000     0.0146027  
H        H      0.077700000000     0.142100000000     0.288300000000     0.0146027  
H        H      0.425000000000     0.215000000000     0.933900000000     0.0146027  
H        H      0.089400000000     0.796200000000     0.179200000000     0.0146027  
H        H      0.780100000000     0.321900000000     0.655200000000     0.0146027  
H        H      0.558000000000     0.399300000000     0.572000000000     0.0146027  
H        H      0.639500000000     0.528700000000     0.611900000000     0.0146027  
H        H      0.537400000000     0.239100000000     0.741700000000     0.0146027  
H        H      0.845400000000     0.137200000000     0.564300000000     0.0146027  
H        H      0.687000000000     0.097700000000     0.727600000000     0.0146027  
H        H      0.810800000000     0.564000000000     0.523600000000     0.0146027  
H        H      0.924500000000     0.557800000000     0.842100000000     0.0146027  
H        H      0.990000000000     0.438100000000     0.595400000000     0.0146027  
H        H      0.922300000000     0.357900000000     0.788300000000     0.0146027  
H        H      0.966200000000     0.676400000000     0.662700000000     0.0146027  
H        H      0.522800000000     0.253200000000     0.454000000000     0.0146027  
H        H      0.280100000000     0.678100000000     0.844800000000     0.0146027  
H        H      0.058000000000     0.600700000000     0.928000000000     0.0146027  
H        H      0.139500000000     0.471300000000     0.888100000000     0.0146027  
H        H      0.037400000000     0.760900000000     0.758300000000     0.0146027  
H        H      0.345400000000     0.862800000000     0.935700000000     0.0146027  
H        H      0.187000000000     0.902300000000     0.772400000000     0.0146027  
H        H      0.310800000000     0.436000000000     0.976400000000     0.0146027  
H        H      0.424500000000     0.442200000000     0.657900000000     0.0146027  
H        H      0.490000000000     0.561900000000     0.904600000000     0.0146027  
H        H      0.422300000000     0.642100000000     0.711700000000     0.0146027  
H        H      0.075000000000     0.715000000000     0.066100000000     0.0146027  
H        H      0.410600000000     0.296200000000     0.820800000000     0.0146027  
H        H      0.719900000000     0.821900000000     0.344800000000     0.0146027  
H        H      0.942000000000     0.899300000000     0.428000000000     0.0146027  
H        H      0.860500000000     0.028700000000     0.388100000000     0.0146027  
H        H      0.962600000000     0.739100000000     0.258300000000     0.0146027  
H        H      0.654600000000     0.637200000000     0.435700000000     0.0146027  
H        H      0.813000000000     0.597700000000     0.272400000000     0.0146027  
H        H      0.689200000000     0.064000000000     0.476400000000     0.0146027  
H        H      0.575500000000     0.057800000000     0.157900000000     0.0146027  
H        H      0.510000000000     0.938100000000     0.404600000000     0.0146027  
H        H      0.577700000000     0.857900000000     0.211700000000     0.0146027  
H        H      0.533800000000     0.176400000000     0.337300000000     0.0146027  
H        H      0.977200000000     0.753200000000     0.546000000000     0.0146027  
C        C      0.733900000000     0.857690000000     0.860190000000     0.0392148  
C        C      0.613200000000     0.899100000000     0.905710000000     0.0392148  
C        C      0.658200000000     0.970800000000     0.883700000000     0.0392148  
C        C      0.513700000000     0.691100000000     0.783000000000     0.0392148  
C        C      0.822400000000     0.619800000000     0.890680000000     0.0392148  
C        C      0.737210000000     0.598150000000     0.801840000000     0.0392148  
C        C      0.846010000000     0.105900000000     0.953600000000     0.0392148  
C        C      0.865900000000     0.076000000000     0.660940000000     0.0392148  
C        C      0.987110000000     0.905310000000     0.861610000000     0.0392148  
C        C      0.949900000000     0.862800000000     0.757100000000     0.0392148  
C        C      0.595100000000     0.727500000000     0.070300000000     0.0392148  
C        C      0.897600000000     0.183000000000     0.867500000000     0.0392148  
C        C      0.266100000000     0.642310000000     0.360190000000     0.0392148  
C        C      0.386800000000     0.600900000000     0.405710000000     0.0392148  
C        C      0.341800000000     0.529200000000     0.383700000000     0.0392148  
C        C      0.486300000000     0.808900000000     0.283000000000     0.0392148  
C        C      0.177600000000     0.880200000000     0.390680000000     0.0392148  
C        C      0.262790000000     0.901850000000     0.301840000000     0.0392148  
C        C      0.153990000000     0.394100000000     0.453600000000     0.0392148  
C        C      0.134100000000     0.424000000000     0.160940000000     0.0392148  
C        C      0.012890000000     0.594690000000     0.361610000000     0.0392148  
C        C      0.050100000000     0.637200000000     0.257100000000     0.0392148  
C        C      0.067700000000     0.334900000000     0.378800000000     0.0392148  
C        C      0.438100000000     0.792000000000     0.557000000000     0.0392148  
C        C      0.766100000000     0.357690000000     0.139810000000     0.0392148  
C        C      0.886800000000     0.399100000000     0.094290000000     0.0392148  
C        C      0.841800000000     0.470800000000     0.116300000000     0.0392148  
C        C      0.986300000000     0.191100000000     0.217000000000     0.0392148  
C        C      0.677600000000     0.119800000000     0.109320000000     0.0392148  
C        C      0.762790000000     0.098150000000     0.198160000000     0.0392148  
C        C      0.653990000000     0.605900000000     0.046400000000     0.0392148  
C        C      0.634100000000     0.576000000000     0.339060000000     0.0392148  
C        C      0.512890000000     0.405310000000     0.138390000000     0.0392148  
C        C      0.550100000000     0.362800000000     0.242900000000     0.0392148  
C        C      0.904900000000     0.227500000000     0.929700000000     0.0392148  
C        C      0.602400000000     0.683000000000     0.132500000000     0.0392148  
C        C      0.233900000000     0.142310000000     0.639810000000     0.0392148  
C        C      0.113200000000     0.100900000000     0.594290000000     0.0392148  
C        C      0.158200000000     0.029200000000     0.616300000000     0.0392148  
C        C      0.013700000000     0.308900000000     0.717000000000     0.0392148  
C        C      0.322400000000     0.380200000000     0.609320000000     0.0392148  
C        C      0.237210000000     0.401850000000     0.698160000000     0.0392148  
C        C      0.346010000000     0.894100000000     0.546400000000     0.0392148  
C        C      0.365900000000     0.924000000000     0.839060000000     0.0392148  
C        C      0.487110000000     0.094690000000     0.638390000000     0.0392148  
C        C      0.449900000000     0.137200000000     0.742900000000     0.0392148  
C        C      0.432300000000     0.834900000000     0.621200000000     0.0392148  
C        C      0.061900000000     0.292000000000     0.443000000000     0.0392148  
C        C      0.266100000000     0.142310000000     0.139810000000     0.0392148  
C        C      0.386800000000     0.100900000000     0.094290000000     0.0392148  
C        C      0.341800000000     0.029200000000     0.116300000000     0.0392148  
C        C      0.486300000000     0.308900000000     0.217000000000     0.0392148  
C        C      0.177600000000     0.380200000000     0.109320000000     0.0392148  
C        C      0.262790000000     0.401850000000     0.198160000000     0.0392148  
C        C      0.153990000000     0.894100000000     0.046400000000     0.0392148  
C        C      0.134100000000     0.924000000000     0.339060000000     0.0392148  
C        C      0.012890000000     0.094690000000     0.138390000000     0.0392148  
C        C      0.050100000000     0.137200000000     0.242900000000     0.0392148  
C        C      0.404900000000     0.272500000000     0.929700000000     0.0392148  
C        C      0.102400000000     0.817000000000     0.132500000000     0.0392148  
C        C      0.733900000000     0.357690000000     0.639810000000     0.0392148  
C        C      0.613200000000     0.399100000000     0.594290000000     0.0392148  
C        C      0.658200000000     0.470800000000     0.616300000000     0.0392148  
C        C      0.513700000000     0.191100000000     0.717000000000     0.0392148  
C        C      0.822400000000     0.119800000000     0.609320000000     0.0392148  
C        C      0.737210000000     0.098150000000     0.698160000000     0.0392148  
C        C      0.846010000000     0.605900000000     0.546400000000     0.0392148  
C        C      0.865900000000     0.576000000000     0.839060000000     0.0392148  
C        C      0.987110000000     0.405310000000     0.638390000000     0.0392148  
C        C      0.949900000000     0.362800000000     0.742900000000     0.0392148  
C        C      0.932300000000     0.665100000000     0.621200000000     0.0392148  
C        C      0.561900000000     0.208000000000     0.443000000000     0.0392148  
C        C      0.233900000000     0.642310000000     0.860190000000     0.0392148  
C        C      0.113200000000     0.600900000000     0.905710000000     0.0392148  
C        C      0.158200000000     0.529200000000     0.883700000000     0.0392148  
C        C      0.013700000000     0.808900000000     0.783000000000     0.0392148  
C        C      0.322400000000     0.880200000000     0.890680000000     0.0392148  
C        C      0.237210000000     0.901850000000     0.801840000000     0.0392148  
C        C      0.346010000000     0.394100000000     0.953600000000     0.0392148  
C        C      0.365900000000     0.424000000000     0.660940000000     0.0392148  
C        C      0.487110000000     0.594690000000     0.861610000000     0.0392148  
C        C      0.449900000000     0.637200000000     0.757100000000     0.0392148  
C        C      0.095100000000     0.772500000000     0.070300000000     0.0392148  
C        C      0.397600000000     0.317000000000     0.867500000000     0.0392148  
C        C      0.766100000000     0.857690000000     0.360190000000     0.0392148  
C        C      0.886800000000     0.899100000000     0.405710000000     0.0392148  
C        C      0.841800000000     0.970800000000     0.383700000000     0.0392148  
C        C      0.986300000000     0.691100000000     0.283000000000     0.0392148  
C        C      0.677600000000     0.619800000000     0.390680000000     0.0392148  
C        C      0.762790000000     0.598150000000     0.301840000000     0.0392148  
C        C      0.653990000000     0.105900000000     0.453600000000     0.0392148  
C        C      0.634100000000     0.076000000000     0.160940000000     0.0392148  
C        C      0.512890000000     0.905310000000     0.361610000000     0.0392148  
C        C      0.550100000000     0.862800000000     0.257100000000     0.0392148  
C        C      0.567700000000     0.165100000000     0.378800000000     0.0392148  
C        C      0.938100000000     0.708000000000     0.557000000000     0.0392148  
N        N      0.661480000000     0.827020000000     0.890100000000    -0.165631   
N        N      0.735140000000     0.943760000000     0.853960000000    -0.165631   
N        N      0.622560000000     0.674170000000     0.011530000000    -0.165631   
N        N      0.536850000000     0.663700000000     0.850080000000    -0.165631   
N        N      0.739280000000     0.634900000000     0.866820000000    -0.165631   
N        N      0.867580000000     0.100880000000     0.884680000000    -0.165631   
N        N      0.811970000000     0.062060000000     0.718080000000    -0.165631   
N        N      0.932870000000     0.924450000000     0.807720000000    -0.165631   
N        N      0.338520000000     0.672980000000     0.390100000000    -0.165631   
N        N      0.264860000000     0.556240000000     0.353960000000    -0.165631   
N        N      0.377440000000     0.825830000000     0.511530000000    -0.165631   
N        N      0.463150000000     0.836300000000     0.350080000000    -0.165631   
N        N      0.260720000000     0.865100000000     0.366820000000    -0.165631   
N        N      0.132420000000     0.399120000000     0.384680000000    -0.165631   
N        N      0.188030000000     0.437940000000     0.218080000000    -0.165631   
N        N      0.067130000000     0.575550000000     0.307720000000    -0.165631   
N        N      0.838520000000     0.327020000000     0.109900000000    -0.165631   
N        N      0.764860000000     0.443760000000     0.146040000000    -0.165631   
N        N      0.877440000000     0.174170000000     0.988470000000    -0.165631   
N        N      0.963150000000     0.163700000000     0.149920000000    -0.165631   
N        N      0.760720000000     0.134900000000     0.133180000000    -0.165631   
N        N      0.632420000000     0.600880000000     0.115320000000    -0.165631   
N        N      0.688030000000     0.562060000000     0.281920000000    -0.165631   
N        N      0.567130000000     0.424450000000     0.192280000000    -0.165631   
N        N      0.161480000000     0.172980000000     0.609900000000    -0.165631   
N        N      0.235140000000     0.056240000000     0.646040000000    -0.165631   
N        N      0.122560000000     0.325830000000     0.488470000000    -0.165631   
N        N      0.036850000000     0.336300000000     0.649920000000    -0.165631   
N        N      0.239280000000     0.365100000000     0.633180000000    -0.165631   
N        N      0.367580000000     0.899120000000     0.615320000000    -0.165631   
N        N      0.311970000000     0.937940000000     0.781920000000    -0.165631   
N        N      0.432870000000     0.075550000000     0.692280000000    -0.165631   
N        N      0.338520000000     0.172980000000     0.109900000000    -0.165631   
N        N      0.264860000000     0.056240000000     0.146040000000    -0.165631   
N        N      0.377440000000     0.325830000000     0.988470000000    -0.165631   
N        N      0.463150000000     0.336300000000     0.149920000000    -0.165631   
N        N      0.260720000000     0.365100000000     0.133180000000    -0.165631   
N        N      0.132420000000     0.899120000000     0.115320000000    -0.165631   
N        N      0.188030000000     0.937940000000     0.281920000000    -0.165631   
N        N      0.067130000000     0.075550000000     0.192280000000    -0.165631   
N        N      0.661480000000     0.327020000000     0.609900000000    -0.165631   
N        N      0.735140000000     0.443760000000     0.646040000000    -0.165631   
N        N      0.622560000000     0.174170000000     0.488470000000    -0.165631   
N        N      0.536850000000     0.163700000000     0.649920000000    -0.165631   
N        N      0.739280000000     0.134900000000     0.633180000000    -0.165631   
N        N      0.867580000000     0.600880000000     0.615320000000    -0.165631   
N        N      0.811970000000     0.562060000000     0.781920000000    -0.165631   
N        N      0.932870000000     0.424450000000     0.692280000000    -0.165631   
N        N      0.161480000000     0.672980000000     0.890100000000    -0.165631   
N        N      0.235140000000     0.556240000000     0.853960000000    -0.165631   
N        N      0.122560000000     0.825830000000     0.011530000000    -0.165631   
N        N      0.036850000000     0.836300000000     0.850080000000    -0.165631   
N        N      0.239280000000     0.865100000000     0.866820000000    -0.165631   
N        N      0.367580000000     0.399120000000     0.884680000000    -0.165631   
N        N      0.311970000000     0.437940000000     0.718080000000    -0.165631   
N        N      0.432870000000     0.575550000000     0.807720000000    -0.165631   
N        N      0.838520000000     0.827020000000     0.390100000000    -0.165631   
N        N      0.764860000000     0.943760000000     0.353960000000    -0.165631   
N        N      0.877440000000     0.674170000000     0.511530000000    -0.165631   
N        N      0.963150000000     0.663700000000     0.350080000000    -0.165631   
N        N      0.760720000000     0.634900000000     0.366820000000    -0.165631   
N        N      0.632420000000     0.100880000000     0.384680000000    -0.165631   
N        N      0.688030000000     0.062060000000     0.218080000000    -0.165631   
N        N      0.567130000000     0.924450000000     0.307720000000    -0.165631   


