data_ZIF-5_original

_audit_creation_method RASPA-1.0
_audit_creation_date 2022-1-30
_audit_author_name 'Felipe Lopes de Oliveira <felipe.lopes.oliveira@ibm.com>'

_cell_length_a    19.0196
_cell_length_b    19.0196
_cell_length_c    19.0196
_cell_angle_alpha 109.471
_cell_angle_beta  109.471
_cell_angle_gamma 109.471
_cell_volume      5296.39

_symmetry_cell_setting          triclinic
_symmetry_space_group_name_Hall 'P 1'
_symmetry_space_group_name_H-M  'P 1'
_symmetry_Int_Tables_number     1

_symmetry_equiv_pos_as_xyz 'x,y,z'

loop_
_atom_site_label
_atom_site_type_symbol
_atom_site_fract_x
_atom_site_fract_y
_atom_site_fract_z
_atom_site_charge
Zn       Zn     0.125000000000     0.250000000000     0.875000000000     0.331141   
Zn       Zn     0.875000000000     0.750000000000     0.125000000000     0.331141   
Zn       Zn     0.375000000000     0.750000000000     0.625000000000     0.331141   
Zn       Zn     0.625000000000     0.250000000000     0.375000000000     0.331141   
Zn       Zn     0.250000000000     0.125000000000     0.375000000000     0.331141   
Zn       Zn     0.750000000000     0.875000000000     0.625000000000     0.331141   
Zn       Zn     0.750000000000     0.375000000000     0.125000000000     0.331141   
Zn       Zn     0.250000000000     0.625000000000     0.875000000000     0.331141   
Zn       Zn     0.875000000000     0.625000000000     0.750000000000     0.331141   
Zn       Zn     0.125000000000     0.375000000000     0.250000000000     0.331141   
Zn       Zn     0.625000000000     0.875000000000     0.250000000000     0.331141   
Zn       Zn     0.375000000000     0.125000000000     0.750000000000     0.331141   
In       In     0.000000000000     0.000000000000     0.000000000000     1.70879    
In       In     0.500000000000     0.000000000000     0.500000000000     1.70879    
In       In     0.500000000000     0.500000000000     0.000000000000     1.70879    
In       In     0.000000000000     0.500000000000     0.500000000000     1.70879    
In       In     0.000000000000     0.500000000000     0.000000000000     1.70879    
In       In     0.500000000000     0.000000000000     0.000000000000     1.70879    
In       In     0.500000000000     0.500000000000     0.500000000000     1.70879    
In       In     0.000000000000     0.000000000000     0.500000000000     1.70879    
H        H      0.055600000000     0.166900000000     0.967700000000    -0.00757616 
H        H      0.944400000000     0.833100000000     0.032300000000    -0.00757616 
H        H      0.444400000000     0.912100000000     0.611300000000    -0.00757616 
H        H      0.555600000000     0.087900000000     0.388700000000    -0.00757616 
H        H      0.300800000000     0.333100000000     0.888700000000    -0.00757616 
H        H      0.699200000000     0.666900000000     0.111300000000    -0.00757616 
H        H      0.199200000000     0.587900000000     0.532300000000    -0.00757616 
H        H      0.800800000000     0.412100000000     0.467700000000    -0.00757616 
H        H      0.087900000000     0.032300000000     0.199200000000    -0.00757616 
H        H      0.912100000000     0.967700000000     0.800800000000    -0.00757616 
H        H      0.833100000000     0.388700000000     0.300800000000    -0.00757616 
H        H      0.166900000000     0.611300000000     0.699200000000    -0.00757616 
H        H      0.412100000000     0.111300000000     0.444400000000    -0.00757616 
H        H      0.587900000000     0.888700000000     0.555600000000    -0.00757616 
H        H      0.666900000000     0.467700000000     0.055600000000    -0.00757616 
H        H      0.333100000000     0.532300000000     0.944400000000    -0.00757616 
H        H      0.888700000000     0.800800000000     0.833100000000    -0.00757616 
H        H      0.111300000000     0.199200000000     0.166900000000    -0.00757616 
H        H      0.532300000000     0.699200000000     0.087900000000    -0.00757616 
H        H      0.467700000000     0.300800000000     0.912100000000    -0.00757616 
H        H      0.967700000000     0.555600000000     0.666900000000    -0.00757616 
H        H      0.032300000000     0.444400000000     0.333100000000    -0.00757616 
H        H      0.611300000000     0.944400000000     0.412100000000    -0.00757616 
H        H      0.388700000000     0.055600000000     0.587900000000    -0.00757616 
H        H      0.055600000000     0.388700000000     0.087900000000    -0.00757616 
H        H      0.944400000000     0.611300000000     0.912100000000    -0.00757616 
H        H      0.444400000000     0.032300000000     0.833100000000    -0.00757616 
H        H      0.555600000000     0.967700000000     0.166900000000    -0.00757616 
H        H      0.300800000000     0.467700000000     0.412100000000    -0.00757616 
H        H      0.699200000000     0.532300000000     0.587900000000    -0.00757616 
H        H      0.199200000000     0.111300000000     0.666900000000    -0.00757616 
H        H      0.800800000000     0.888700000000     0.333100000000    -0.00757616 
H        H      0.087900000000     0.555600000000     0.888700000000    -0.00757616 
H        H      0.912100000000     0.444400000000     0.111300000000    -0.00757616 
H        H      0.833100000000     0.944400000000     0.532300000000    -0.00757616 
H        H      0.166900000000     0.055600000000     0.467700000000    -0.00757616 
H        H      0.412100000000     0.800800000000     0.967700000000    -0.00757616 
H        H      0.587900000000     0.199200000000     0.032300000000    -0.00757616 
H        H      0.666900000000     0.699200000000     0.611300000000    -0.00757616 
H        H      0.333100000000     0.300800000000     0.388700000000    -0.00757616 
H        H      0.888700000000     0.587900000000     0.055600000000    -0.00757616 
H        H      0.111300000000     0.412100000000     0.944400000000    -0.00757616 
H        H      0.532300000000     0.333100000000     0.444400000000    -0.00757616 
H        H      0.467700000000     0.666900000000     0.555600000000    -0.00757616 
H        H      0.967700000000     0.912100000000     0.300800000000    -0.00757616 
H        H      0.032300000000     0.087900000000     0.699200000000    -0.00757616 
H        H      0.611300000000     0.166900000000     0.199200000000    -0.00757616 
H        H      0.388700000000     0.833100000000     0.800800000000    -0.00757616 
H        H      0.104400000000     0.984200000000     0.888600000000    -0.00757616 
H        H      0.895600000000     0.015800000000     0.111400000000    -0.00757616 
H        H      0.395600000000     0.784200000000     0.379800000000    -0.00757616 
H        H      0.604400000000     0.215800000000     0.620200000000    -0.00757616 
H        H      0.404400000000     0.515800000000     0.120200000000    -0.00757616 
H        H      0.595600000000     0.484200000000     0.879800000000    -0.00757616 
H        H      0.095600000000     0.715800000000     0.611400000000    -0.00757616 
H        H      0.904400000000     0.284200000000     0.388600000000    -0.00757616 
H        H      0.215800000000     0.111400000000     0.095600000000    -0.00757616 
H        H      0.784200000000     0.888600000000     0.904400000000    -0.00757616 
H        H      0.015800000000     0.620200000000     0.404400000000    -0.00757616 
H        H      0.984200000000     0.379800000000     0.595600000000    -0.00757616 
H        H      0.284200000000     0.879800000000     0.395600000000    -0.00757616 
H        H      0.715800000000     0.120200000000     0.604400000000    -0.00757616 
H        H      0.484200000000     0.388600000000     0.104400000000    -0.00757616 
H        H      0.515800000000     0.611400000000     0.895600000000    -0.00757616 
H        H      0.120200000000     0.904400000000     0.015800000000    -0.00757616 
H        H      0.879800000000     0.095600000000     0.984200000000    -0.00757616 
H        H      0.611400000000     0.595600000000     0.215800000000    -0.00757616 
H        H      0.388600000000     0.404400000000     0.784200000000    -0.00757616 
H        H      0.888600000000     0.604400000000     0.484200000000    -0.00757616 
H        H      0.111400000000     0.395600000000     0.515800000000    -0.00757616 
H        H      0.379800000000     0.895600000000     0.284200000000    -0.00757616 
H        H      0.620200000000     0.104400000000     0.715800000000    -0.00757616 
H        H      0.104400000000     0.620200000000     0.215800000000    -0.00757616 
H        H      0.895600000000     0.379800000000     0.784200000000    -0.00757616 
H        H      0.395600000000     0.111400000000     0.015800000000    -0.00757616 
H        H      0.604400000000     0.888600000000     0.984200000000    -0.00757616 
H        H      0.404400000000     0.388600000000     0.284200000000    -0.00757616 
H        H      0.595600000000     0.611400000000     0.715800000000    -0.00757616 
H        H      0.095600000000     0.879800000000     0.484200000000    -0.00757616 
H        H      0.904400000000     0.120200000000     0.515800000000    -0.00757616 
H        H      0.215800000000     0.604400000000     0.120200000000    -0.00757616 
H        H      0.784200000000     0.395600000000     0.879800000000    -0.00757616 
H        H      0.015800000000     0.895600000000     0.611400000000    -0.00757616 
H        H      0.984200000000     0.104400000000     0.388600000000    -0.00757616 
H        H      0.284200000000     0.904400000000     0.888600000000    -0.00757616 
H        H      0.715800000000     0.095600000000     0.111400000000    -0.00757616 
H        H      0.484200000000     0.595600000000     0.379800000000    -0.00757616 
H        H      0.515800000000     0.404400000000     0.620200000000    -0.00757616 
H        H      0.120200000000     0.715800000000     0.104400000000    -0.00757616 
H        H      0.879800000000     0.284200000000     0.895600000000    -0.00757616 
H        H      0.611400000000     0.515800000000     0.395600000000    -0.00757616 
H        H      0.388600000000     0.484200000000     0.604400000000    -0.00757616 
H        H      0.888600000000     0.784200000000     0.404400000000    -0.00757616 
H        H      0.111400000000     0.215800000000     0.595600000000    -0.00757616 
H        H      0.379800000000     0.984200000000     0.095600000000    -0.00757616 
H        H      0.620200000000     0.015800000000     0.904400000000    -0.00757616 
H        H      0.149600000000     0.083700000000     0.830500000000    -0.00757616 
H        H      0.850400000000     0.916300000000     0.169500000000    -0.00757616 
H        H      0.350400000000     0.680900000000     0.434100000000    -0.00757616 
H        H      0.649600000000     0.319100000000     0.565900000000    -0.00757616 
H        H      0.246800000000     0.416300000000     0.065900000000    -0.00757616 
H        H      0.753200000000     0.583700000000     0.934100000000    -0.00757616 
H        H      0.253200000000     0.819100000000     0.669500000000    -0.00757616 
H        H      0.746800000000     0.180900000000     0.330500000000    -0.00757616 
H        H      0.319100000000     0.169500000000     0.253200000000    -0.00757616 
H        H      0.680900000000     0.830500000000     0.746800000000    -0.00757616 
H        H      0.916300000000     0.565900000000     0.246800000000    -0.00757616 
H        H      0.083700000000     0.434100000000     0.753200000000    -0.00757616 
H        H      0.180900000000     0.934100000000     0.350400000000    -0.00757616 
H        H      0.819100000000     0.065900000000     0.649600000000    -0.00757616 
H        H      0.583700000000     0.330500000000     0.149600000000    -0.00757616 
H        H      0.416300000000     0.669500000000     0.850400000000    -0.00757616 
H        H      0.065900000000     0.746800000000     0.916300000000    -0.00757616 
H        H      0.934100000000     0.253200000000     0.083700000000    -0.00757616 
H        H      0.669500000000     0.753200000000     0.319100000000    -0.00757616 
H        H      0.330500000000     0.246800000000     0.680900000000    -0.00757616 
H        H      0.830500000000     0.649600000000     0.583700000000    -0.00757616 
H        H      0.169500000000     0.350400000000     0.416300000000    -0.00757616 
H        H      0.434100000000     0.850400000000     0.180900000000    -0.00757616 
H        H      0.565900000000     0.149600000000     0.819100000000    -0.00757616 
H        H      0.149600000000     0.565900000000     0.319100000000    -0.00757616 
H        H      0.850400000000     0.434100000000     0.680900000000    -0.00757616 
H        H      0.350400000000     0.169500000000     0.916300000000    -0.00757616 
H        H      0.649600000000     0.830500000000     0.083700000000    -0.00757616 
H        H      0.246800000000     0.330500000000     0.180900000000    -0.00757616 
H        H      0.753200000000     0.669500000000     0.819100000000    -0.00757616 
H        H      0.253200000000     0.934100000000     0.583700000000    -0.00757616 
H        H      0.746800000000     0.065900000000     0.416300000000    -0.00757616 
H        H      0.319100000000     0.649600000000     0.065900000000    -0.00757616 
H        H      0.680900000000     0.350400000000     0.934100000000    -0.00757616 
H        H      0.916300000000     0.850400000000     0.669500000000    -0.00757616 
H        H      0.083700000000     0.149600000000     0.330500000000    -0.00757616 
H        H      0.180900000000     0.746800000000     0.830500000000    -0.00757616 
H        H      0.819100000000     0.253200000000     0.169500000000    -0.00757616 
H        H      0.583700000000     0.753200000000     0.434100000000    -0.00757616 
H        H      0.416300000000     0.246800000000     0.565900000000    -0.00757616 
H        H      0.065900000000     0.819100000000     0.149600000000    -0.00757616 
H        H      0.934100000000     0.180900000000     0.850400000000    -0.00757616 
H        H      0.669500000000     0.416300000000     0.350400000000    -0.00757616 
H        H      0.330500000000     0.583700000000     0.649600000000    -0.00757616 
H        H      0.830500000000     0.680900000000     0.246800000000    -0.00757616 
H        H      0.169500000000     0.319100000000     0.753200000000    -0.00757616 
H        H      0.434100000000     0.083700000000     0.253200000000    -0.00757616 
H        H      0.565900000000     0.916300000000     0.746800000000    -0.00757616 
C        C      0.072810000000     0.132550000000     0.940840000000     0.0462818  
C        C      0.927190000000     0.867450000000     0.059160000000     0.0462818  
C        C      0.427190000000     0.868030000000     0.559740000000     0.0462818  
C        C      0.572810000000     0.131970000000     0.440260000000     0.0462818  
C        C      0.308290000000     0.367450000000     0.940260000000     0.0462818  
C        C      0.691710000000     0.632550000000     0.059740000000     0.0462818  
C        C      0.191710000000     0.631970000000     0.559160000000     0.0462818  
C        C      0.808290000000     0.368030000000     0.440840000000     0.0462818  
C        C      0.131970000000     0.059160000000     0.191710000000     0.0462818  
C        C      0.868030000000     0.940840000000     0.808290000000     0.0462818  
C        C      0.867450000000     0.440260000000     0.308290000000     0.0462818  
C        C      0.132550000000     0.559740000000     0.691710000000     0.0462818  
C        C      0.368030000000     0.059740000000     0.427190000000     0.0462818  
C        C      0.631970000000     0.940260000000     0.572810000000     0.0462818  
C        C      0.632550000000     0.440840000000     0.072810000000     0.0462818  
C        C      0.367450000000     0.559160000000     0.927190000000     0.0462818  
C        C      0.940260000000     0.808290000000     0.867450000000     0.0462818  
C        C      0.059740000000     0.191710000000     0.132550000000     0.0462818  
C        C      0.559160000000     0.691710000000     0.131970000000     0.0462818  
C        C      0.440840000000     0.308290000000     0.868030000000     0.0462818  
C        C      0.940840000000     0.572810000000     0.632550000000     0.0462818  
C        C      0.059160000000     0.427190000000     0.367450000000     0.0462818  
C        C      0.559740000000     0.927190000000     0.368030000000     0.0462818  
C        C      0.440260000000     0.072810000000     0.631970000000     0.0462818  
C        C      0.072810000000     0.440260000000     0.131970000000     0.0462818  
C        C      0.927190000000     0.559740000000     0.868030000000     0.0462818  
C        C      0.427190000000     0.059160000000     0.867450000000     0.0462818  
C        C      0.572810000000     0.940840000000     0.132550000000     0.0462818  
C        C      0.308290000000     0.440840000000     0.368030000000     0.0462818  
C        C      0.691710000000     0.559160000000     0.631970000000     0.0462818  
C        C      0.191710000000     0.059740000000     0.632550000000     0.0462818  
C        C      0.808290000000     0.940260000000     0.367450000000     0.0462818  
C        C      0.131970000000     0.572810000000     0.940260000000     0.0462818  
C        C      0.868030000000     0.427190000000     0.059740000000     0.0462818  
C        C      0.867450000000     0.927190000000     0.559160000000     0.0462818  
C        C      0.132550000000     0.072810000000     0.440840000000     0.0462818  
C        C      0.368030000000     0.808290000000     0.940840000000     0.0462818  
C        C      0.631970000000     0.191710000000     0.059160000000     0.0462818  
C        C      0.632550000000     0.691710000000     0.559740000000     0.0462818  
C        C      0.367450000000     0.308290000000     0.440260000000     0.0462818  
C        C      0.940260000000     0.631970000000     0.072810000000     0.0462818  
C        C      0.059740000000     0.368030000000     0.927190000000     0.0462818  
C        C      0.559160000000     0.367450000000     0.427190000000     0.0462818  
C        C      0.440840000000     0.632550000000     0.572810000000     0.0462818  
C        C      0.940840000000     0.868030000000     0.308290000000     0.0462818  
C        C      0.059160000000     0.131970000000     0.691710000000     0.0462818  
C        C      0.559740000000     0.132550000000     0.191710000000     0.0462818  
C        C      0.440260000000     0.867450000000     0.808290000000     0.0462818  
C        C      0.103950000000     0.033820000000     0.897090000000     0.0462818  
C        C      0.896050000000     0.966180000000     0.102910000000     0.0462818  
C        C      0.396050000000     0.793140000000     0.429870000000     0.0462818  
C        C      0.603950000000     0.206860000000     0.570130000000     0.0462818  
C        C      0.363270000000     0.466180000000     0.070130000000     0.0462818  
C        C      0.636730000000     0.533820000000     0.929870000000     0.0462818  
C        C      0.136730000000     0.706860000000     0.602910000000     0.0462818  
C        C      0.863270000000     0.293140000000     0.397090000000     0.0462818  
C        C      0.206860000000     0.102910000000     0.136730000000     0.0462818  
C        C      0.793140000000     0.897090000000     0.863270000000     0.0462818  
C        C      0.966180000000     0.570130000000     0.363270000000     0.0462818  
C        C      0.033820000000     0.429870000000     0.636730000000     0.0462818  
C        C      0.293140000000     0.929870000000     0.396050000000     0.0462818  
C        C      0.706860000000     0.070130000000     0.603950000000     0.0462818  
C        C      0.533820000000     0.397090000000     0.103950000000     0.0462818  
C        C      0.466180000000     0.602910000000     0.896050000000     0.0462818  
C        C      0.070130000000     0.863270000000     0.966180000000     0.0462818  
C        C      0.929870000000     0.136730000000     0.033820000000     0.0462818  
C        C      0.602910000000     0.636730000000     0.206860000000     0.0462818  
C        C      0.397090000000     0.363270000000     0.793140000000     0.0462818  
C        C      0.897090000000     0.603950000000     0.533820000000     0.0462818  
C        C      0.102910000000     0.396050000000     0.466180000000     0.0462818  
C        C      0.429870000000     0.896050000000     0.293140000000     0.0462818  
C        C      0.570130000000     0.103950000000     0.706860000000     0.0462818  
C        C      0.103950000000     0.570130000000     0.206860000000     0.0462818  
C        C      0.896050000000     0.429870000000     0.793140000000     0.0462818  
C        C      0.396050000000     0.102910000000     0.966180000000     0.0462818  
C        C      0.603950000000     0.897090000000     0.033820000000     0.0462818  
C        C      0.363270000000     0.397090000000     0.293140000000     0.0462818  
C        C      0.636730000000     0.602910000000     0.706860000000     0.0462818  
C        C      0.136730000000     0.929870000000     0.533820000000     0.0462818  
C        C      0.863270000000     0.070130000000     0.466180000000     0.0462818  
C        C      0.206860000000     0.603950000000     0.070130000000     0.0462818  
C        C      0.793140000000     0.396050000000     0.929870000000     0.0462818  
C        C      0.966180000000     0.896050000000     0.602910000000     0.0462818  
C        C      0.033820000000     0.103950000000     0.397090000000     0.0462818  
C        C      0.293140000000     0.863270000000     0.897090000000     0.0462818  
C        C      0.706860000000     0.136730000000     0.102910000000     0.0462818  
C        C      0.533820000000     0.636730000000     0.429870000000     0.0462818  
C        C      0.466180000000     0.363270000000     0.570130000000     0.0462818  
C        C      0.070130000000     0.706860000000     0.103950000000     0.0462818  
C        C      0.929870000000     0.293140000000     0.896050000000     0.0462818  
C        C      0.602910000000     0.466180000000     0.396050000000     0.0462818  
C        C      0.397090000000     0.533820000000     0.603950000000     0.0462818  
C        C      0.897090000000     0.793140000000     0.363270000000     0.0462818  
C        C      0.102910000000     0.206860000000     0.636730000000     0.0462818  
C        C      0.429870000000     0.033820000000     0.136730000000     0.0462818  
C        C      0.570130000000     0.966180000000     0.863270000000     0.0462818  
C        C      0.127090000000     0.086760000000     0.865970000000     0.0462818  
C        C      0.872910000000     0.913240000000     0.134030000000     0.0462818  
C        C      0.372910000000     0.738880000000     0.459670000000     0.0462818  
C        C      0.627090000000     0.261120000000     0.540330000000     0.0462818  
C        C      0.279210000000     0.413240000000     0.040330000000     0.0462818  
C        C      0.720790000000     0.586760000000     0.959670000000     0.0462818  
C        C      0.220790000000     0.761120000000     0.634030000000     0.0462818  
C        C      0.779210000000     0.238880000000     0.365970000000     0.0462818  
C        C      0.261120000000     0.134030000000     0.220790000000     0.0462818  
C        C      0.738880000000     0.865970000000     0.779210000000     0.0462818  
C        C      0.913240000000     0.540330000000     0.279210000000     0.0462818  
C        C      0.086760000000     0.459670000000     0.720790000000     0.0462818  
C        C      0.238880000000     0.959670000000     0.372910000000     0.0462818  
C        C      0.761120000000     0.040330000000     0.627090000000     0.0462818  
C        C      0.586760000000     0.365970000000     0.127090000000     0.0462818  
C        C      0.413240000000     0.634030000000     0.872910000000     0.0462818  
C        C      0.040330000000     0.779210000000     0.913240000000     0.0462818  
C        C      0.959670000000     0.220790000000     0.086760000000     0.0462818  
C        C      0.634030000000     0.720790000000     0.261120000000     0.0462818  
C        C      0.365970000000     0.279210000000     0.738880000000     0.0462818  
C        C      0.865970000000     0.627090000000     0.586760000000     0.0462818  
C        C      0.134030000000     0.372910000000     0.413240000000     0.0462818  
C        C      0.459670000000     0.872910000000     0.238880000000     0.0462818  
C        C      0.540330000000     0.127090000000     0.761120000000     0.0462818  
C        C      0.127090000000     0.540330000000     0.261120000000     0.0462818  
C        C      0.872910000000     0.459670000000     0.738880000000     0.0462818  
C        C      0.372910000000     0.134030000000     0.913240000000     0.0462818  
C        C      0.627090000000     0.865970000000     0.086760000000     0.0462818  
C        C      0.279210000000     0.365970000000     0.238880000000     0.0462818  
C        C      0.720790000000     0.634030000000     0.761120000000     0.0462818  
C        C      0.220790000000     0.959670000000     0.586760000000     0.0462818  
C        C      0.779210000000     0.040330000000     0.413240000000     0.0462818  
C        C      0.261120000000     0.627090000000     0.040330000000     0.0462818  
C        C      0.738880000000     0.372910000000     0.959670000000     0.0462818  
C        C      0.913240000000     0.872910000000     0.634030000000     0.0462818  
C        C      0.086760000000     0.127090000000     0.365970000000     0.0462818  
C        C      0.238880000000     0.779210000000     0.865970000000     0.0462818  
C        C      0.761120000000     0.220790000000     0.134030000000     0.0462818  
C        C      0.586760000000     0.720790000000     0.459670000000     0.0462818  
C        C      0.413240000000     0.279210000000     0.540330000000     0.0462818  
C        C      0.040330000000     0.761120000000     0.127090000000     0.0462818  
C        C      0.959670000000     0.238880000000     0.872910000000     0.0462818  
C        C      0.634030000000     0.413240000000     0.372910000000     0.0462818  
C        C      0.365970000000     0.586760000000     0.627090000000     0.0462818  
C        C      0.865970000000     0.738880000000     0.279210000000     0.0462818  
C        C      0.134030000000     0.261120000000     0.720790000000     0.0462818  
C        C      0.459670000000     0.086760000000     0.220790000000     0.0462818  
C        C      0.540330000000     0.913240000000     0.779210000000     0.0462818  
N        N      0.107000000000     0.150150000000     0.893570000000    -0.24185    
N        N      0.893000000000     0.849850000000     0.106430000000    -0.24185    
N        N      0.393000000000     0.786570000000     0.543150000000    -0.24185    
N        N      0.607000000000     0.213430000000     0.456850000000    -0.24185    
N        N      0.243420000000     0.349850000000     0.956850000000    -0.24185    
N        N      0.756580000000     0.650150000000     0.043150000000    -0.24185    
N        N      0.256580000000     0.713430000000     0.606430000000    -0.24185    
N        N      0.743420000000     0.286570000000     0.393570000000    -0.24185    
N        N      0.213430000000     0.106430000000     0.256580000000    -0.24185    
N        N      0.786570000000     0.893570000000     0.743420000000    -0.24185    
N        N      0.849850000000     0.456850000000     0.243420000000    -0.24185    
N        N      0.150150000000     0.543150000000     0.756580000000    -0.24185    
N        N      0.286570000000     0.043150000000     0.393000000000    -0.24185    
N        N      0.713430000000     0.956850000000     0.607000000000    -0.24185    
N        N      0.650150000000     0.393570000000     0.107000000000    -0.24185    
N        N      0.349850000000     0.606430000000     0.893000000000    -0.24185    
N        N      0.956850000000     0.743420000000     0.849850000000    -0.24185    
N        N      0.043150000000     0.256580000000     0.150150000000    -0.24185    
N        N      0.606430000000     0.756580000000     0.213430000000    -0.24185    
N        N      0.393570000000     0.243420000000     0.786570000000    -0.24185    
N        N      0.893570000000     0.607000000000     0.650150000000    -0.24185    
N        N      0.106430000000     0.393000000000     0.349850000000    -0.24185    
N        N      0.543150000000     0.893000000000     0.286570000000    -0.24185    
N        N      0.456850000000     0.107000000000     0.713430000000    -0.24185    
N        N      0.107000000000     0.456850000000     0.213430000000    -0.24185    
N        N      0.893000000000     0.543150000000     0.786570000000    -0.24185    
N        N      0.393000000000     0.106430000000     0.849850000000    -0.24185    
N        N      0.607000000000     0.893570000000     0.150150000000    -0.24185    
N        N      0.243420000000     0.393570000000     0.286570000000    -0.24185    
N        N      0.756580000000     0.606430000000     0.713430000000    -0.24185    
N        N      0.256580000000     0.043150000000     0.650150000000    -0.24185    
N        N      0.743420000000     0.956850000000     0.349850000000    -0.24185    
N        N      0.213430000000     0.607000000000     0.956850000000    -0.24185    
N        N      0.786570000000     0.393000000000     0.043150000000    -0.24185    
N        N      0.849850000000     0.893000000000     0.606430000000    -0.24185    
N        N      0.150150000000     0.107000000000     0.393570000000    -0.24185    
N        N      0.286570000000     0.743420000000     0.893570000000    -0.24185    
N        N      0.713430000000     0.256580000000     0.106430000000    -0.24185    
N        N      0.650150000000     0.756580000000     0.543150000000    -0.24185    
N        N      0.349850000000     0.243420000000     0.456850000000    -0.24185    
N        N      0.956850000000     0.713430000000     0.107000000000    -0.24185    
N        N      0.043150000000     0.286570000000     0.893000000000    -0.24185    
N        N      0.606430000000     0.349850000000     0.393000000000    -0.24185    
N        N      0.393570000000     0.650150000000     0.607000000000    -0.24185    
N        N      0.893570000000     0.786570000000     0.243420000000    -0.24185    
N        N      0.106430000000     0.213430000000     0.756580000000    -0.24185    
N        N      0.543150000000     0.150150000000     0.256580000000    -0.24185    
N        N      0.456850000000     0.849850000000     0.743420000000    -0.24185    
N        N      0.069220000000     0.063000000000     0.945120000000    -0.24185    
N        N      0.930780000000     0.937000000000     0.054880000000    -0.24185    
N        N      0.430780000000     0.875900000000     0.493780000000    -0.24185    
N        N      0.569220000000     0.124100000000     0.506220000000    -0.24185    
N        N      0.382120000000     0.437000000000     0.006220000000    -0.24185    
N        N      0.617880000000     0.563000000000     0.993780000000    -0.24185    
N        N      0.117880000000     0.624100000000     0.554880000000    -0.24185    
N        N      0.882120000000     0.375900000000     0.445120000000    -0.24185    
N        N      0.124100000000     0.054880000000     0.117880000000    -0.24185    
N        N      0.875900000000     0.945120000000     0.882120000000    -0.24185    
N        N      0.937000000000     0.506220000000     0.382120000000    -0.24185    
N        N      0.063000000000     0.493780000000     0.617880000000    -0.24185    
N        N      0.375900000000     0.993780000000     0.430780000000    -0.24185    
N        N      0.624100000000     0.006220000000     0.569220000000    -0.24185    
N        N      0.563000000000     0.445120000000     0.069220000000    -0.24185    
N        N      0.437000000000     0.554880000000     0.930780000000    -0.24185    
N        N      0.006220000000     0.882120000000     0.937000000000    -0.24185    
N        N      0.993780000000     0.117880000000     0.063000000000    -0.24185    
N        N      0.554880000000     0.617880000000     0.124100000000    -0.24185    
N        N      0.445120000000     0.382120000000     0.875900000000    -0.24185    
N        N      0.945120000000     0.569220000000     0.563000000000    -0.24185    
N        N      0.054880000000     0.430780000000     0.437000000000    -0.24185    
N        N      0.493780000000     0.930780000000     0.375900000000    -0.24185    
N        N      0.506220000000     0.069220000000     0.624100000000    -0.24185    
N        N      0.069220000000     0.506220000000     0.124100000000    -0.24185    
N        N      0.930780000000     0.493780000000     0.875900000000    -0.24185    
N        N      0.430780000000     0.054880000000     0.937000000000    -0.24185    
N        N      0.569220000000     0.945120000000     0.063000000000    -0.24185    
N        N      0.382120000000     0.445120000000     0.375900000000    -0.24185    
N        N      0.617880000000     0.554880000000     0.624100000000    -0.24185    
N        N      0.117880000000     0.993780000000     0.563000000000    -0.24185    
N        N      0.882120000000     0.006220000000     0.437000000000    -0.24185    
N        N      0.124100000000     0.569220000000     0.006220000000    -0.24185    
N        N      0.875900000000     0.430780000000     0.993780000000    -0.24185    
N        N      0.937000000000     0.930780000000     0.554880000000    -0.24185    
N        N      0.063000000000     0.069220000000     0.445120000000    -0.24185    
N        N      0.375900000000     0.882120000000     0.945120000000    -0.24185    
N        N      0.624100000000     0.117880000000     0.054880000000    -0.24185    
N        N      0.563000000000     0.617880000000     0.493780000000    -0.24185    
N        N      0.437000000000     0.382120000000     0.506220000000    -0.24185    
N        N      0.006220000000     0.624100000000     0.069220000000    -0.24185    
N        N      0.993780000000     0.375900000000     0.930780000000    -0.24185    
N        N      0.554880000000     0.437000000000     0.430780000000    -0.24185    
N        N      0.445120000000     0.563000000000     0.569220000000    -0.24185    
N        N      0.945120000000     0.875900000000     0.382120000000    -0.24185    
N        N      0.054880000000     0.124100000000     0.617880000000    -0.24185    
N        N      0.493780000000     0.063000000000     0.117880000000    -0.24185    
N        N      0.506220000000     0.937000000000     0.882120000000    -0.24185    


