data_ZIF-77_original

_audit_creation_method RASPA-1.0
_audit_creation_date 2022-1-30
_audit_author_name 'Felipe Lopes de Oliveira <felipe.lopes.oliveira@ibm.com>'

_cell_length_a    11.1248
_cell_length_b    17.6323
_cell_length_c    17.6323
_cell_angle_alpha 78.6462
_cell_angle_beta  71.611
_cell_angle_gamma 71.611
_cell_volume      3096.21

_symmetry_cell_setting          triclinic
_symmetry_space_group_name_Hall 'P 1'
_symmetry_space_group_name_H-M  'P 1'
_symmetry_Int_Tables_number     1

_symmetry_equiv_pos_as_xyz 'x,y,z'

loop_
_atom_site_label
_atom_site_type_symbol
_atom_site_fract_x
_atom_site_fract_y
_atom_site_fract_z
_atom_site_charge
Zn       Zn     0.655150000000     0.322870000000     0.928190000000     0.402795   
Zn       Zn     0.344850000000     0.677130000000     0.071810000000     0.402795   
Zn       Zn     0.093790000000     0.928190000000     0.322870000000     0.402795   
Zn       Zn     0.906210000000     0.071810000000     0.677130000000     0.402795   
Zn       Zn     0.844850000000     0.571810000000     0.177130000000     0.402795   
Zn       Zn     0.155150000000     0.428190000000     0.822870000000     0.402795   
Zn       Zn     0.406210000000     0.177130000000     0.571810000000     0.402795   
Zn       Zn     0.593790000000     0.822870000000     0.428190000000     0.402795   
Zn       Zn     0.750000000000     0.250000000000     0.250000000000     0.402795   
Zn       Zn     0.250000000000     0.750000000000     0.750000000000     0.402795   
H        H      0.742200000000     0.111600000000     0.155000000000     0.0568385  
H        H      0.257800000000     0.888400000000     0.845000000000     0.0568385  
H        H      0.991200000000     0.155000000000     0.111600000000     0.0568385  
H        H      0.008800000000     0.845000000000     0.888400000000     0.0568385  
H        H      0.757800000000     0.345000000000     0.388400000000     0.0568385  
H        H      0.242200000000     0.655000000000     0.611600000000     0.0568385  
H        H      0.508800000000     0.388400000000     0.345000000000     0.0568385  
H        H      0.491200000000     0.611600000000     0.655000000000     0.0568385  
H        H      0.688700000000     0.140800000000     0.024800000000     0.0568385  
H        H      0.311300000000     0.859200000000     0.975200000000     0.0568385  
H        H      0.145700000000     0.024800000000     0.140800000000     0.0568385  
H        H      0.854300000000     0.975200000000     0.859200000000     0.0568385  
H        H      0.811300000000     0.475200000000     0.359200000000     0.0568385  
H        H      0.188700000000     0.524800000000     0.640800000000     0.0568385  
H        H      0.354300000000     0.359200000000     0.475200000000     0.0568385  
H        H      0.645700000000     0.640800000000     0.524800000000     0.0568385  
H        H      0.883800000000     0.333400000000     0.766200000000     0.0568385  
H        H      0.116200000000     0.666600000000     0.233800000000     0.0568385  
H        H      0.016600000000     0.766200000000     0.333400000000     0.0568385  
H        H      0.983400000000     0.233800000000     0.666600000000     0.0568385  
H        H      0.616200000000     0.733800000000     0.166600000000     0.0568385  
H        H      0.383800000000     0.266200000000     0.833400000000     0.0568385  
H        H      0.483400000000     0.166600000000     0.733800000000     0.0568385  
H        H      0.516600000000     0.833400000000     0.266200000000     0.0568385  
H        H      0.870300000000     0.547700000000     0.838500000000     0.0568385  
H        H      0.129700000000     0.452300000000     0.161500000000     0.0568385  
H        H      0.743500000000     0.838500000000     0.547700000000     0.0568385  
H        H      0.256500000000     0.161500000000     0.452300000000     0.0568385  
H        H      0.629700000000     0.661500000000     0.952300000000     0.0568385  
H        H      0.370300000000     0.338500000000     0.047700000000     0.0568385  
H        H      0.756500000000     0.952300000000     0.661500000000     0.0568385  
H        H      0.243500000000     0.047700000000     0.338500000000     0.0568385  
H        H      0.666300000000     0.505400000000     0.880200000000     0.0568385  
H        H      0.333700000000     0.494600000000     0.119800000000     0.0568385  
H        H      0.948100000000     0.880200000000     0.505400000000     0.0568385  
H        H      0.051900000000     0.119800000000     0.494600000000     0.0568385  
H        H      0.833700000000     0.619800000000     0.994600000000     0.0568385  
H        H      0.166300000000     0.380200000000     0.005400000000     0.0568385  
H        H      0.551900000000     0.994600000000     0.619800000000     0.0568385  
H        H      0.448100000000     0.005400000000     0.380200000000     0.0568385  
C        C      0.711300000000     0.163700000000     0.129500000000     0.0791129  
C        C      0.288700000000     0.836300000000     0.870500000000     0.0791129  
C        C      0.995500000000     0.129500000000     0.163700000000     0.0791129  
C        C      0.004500000000     0.870500000000     0.836300000000     0.0791129  
C        C      0.788700000000     0.370500000000     0.336300000000     0.0791129  
C        C      0.211300000000     0.629500000000     0.663700000000     0.0791129  
C        C      0.504500000000     0.336300000000     0.370500000000     0.0791129  
C        C      0.495500000000     0.663700000000     0.629500000000     0.0791129  
C        C      0.682100000000     0.179800000000     0.057200000000     0.0791129  
C        C      0.317900000000     0.820200000000     0.942800000000     0.0791129  
C        C      0.080900000000     0.057200000000     0.179800000000     0.0791129  
C        C      0.919100000000     0.942800000000     0.820200000000     0.0791129  
C        C      0.817900000000     0.442800000000     0.320200000000     0.0791129  
C        C      0.182100000000     0.557200000000     0.679800000000     0.0791129  
C        C      0.419100000000     0.320200000000     0.442800000000     0.0791129  
C        C      0.580900000000     0.679800000000     0.557200000000     0.0791129  
C        C      0.647210000000     0.289090000000     0.102690000000     0.0791129  
C        C      0.352790000000     0.710910000000     0.897310000000     0.0791129  
C        C      0.961010000000     0.102690000000     0.289090000000     0.0791129  
C        C      0.038990000000     0.897310000000     0.710910000000     0.0791129  
C        C      0.852790000000     0.397310000000     0.210910000000     0.0791129  
C        C      0.147210000000     0.602690000000     0.789090000000     0.0791129  
C        C      0.538990000000     0.210910000000     0.397310000000     0.0791129  
C        C      0.461010000000     0.789090000000     0.602690000000     0.0791129  
C        C      0.758700000000     0.195200000000     0.804800000000     0.0791129  
C        C      0.241300000000     0.804800000000     0.195200000000     0.0791129  
C        C      0.741300000000     0.695200000000     0.304800000000     0.0791129  
C        C      0.258700000000     0.304800000000     0.695200000000     0.0791129  
C        C      0.857500000000     0.286600000000     0.768200000000     0.0791129  
C        C      0.142500000000     0.713400000000     0.231800000000     0.0791129  
C        C      0.087700000000     0.768200000000     0.286600000000     0.0791129  
C        C      0.912300000000     0.231800000000     0.713400000000     0.0791129  
C        C      0.642500000000     0.731800000000     0.213400000000     0.0791129  
C        C      0.357500000000     0.268200000000     0.786600000000     0.0791129  
C        C      0.412300000000     0.213400000000     0.731800000000     0.0791129  
C        C      0.587700000000     0.786600000000     0.268200000000     0.0791129  
C        C      0.907730000000     0.372170000000     0.902370000000     0.0791129  
C        C      0.092270000000     0.627830000000     0.097630000000     0.0791129  
C        C      0.817730000000     0.902370000000     0.372170000000     0.0791129  
C        C      0.182270000000     0.097630000000     0.627830000000     0.0791129  
C        C      0.592270000000     0.597630000000     0.127830000000     0.0791129  
C        C      0.407730000000     0.402370000000     0.872170000000     0.0791129  
C        C      0.682270000000     0.127830000000     0.597630000000     0.0791129  
C        C      0.317730000000     0.872170000000     0.402370000000     0.0791129  
C        C      0.863400000000     0.494900000000     0.859900000000     0.0791129  
C        C      0.136600000000     0.505100000000     0.140100000000     0.0791129  
C        C      0.781800000000     0.859900000000     0.494900000000     0.0791129  
C        C      0.218200000000     0.140100000000     0.505100000000     0.0791129  
C        C      0.636600000000     0.640100000000     0.005100000000     0.0791129  
C        C      0.363400000000     0.359900000000     0.994900000000     0.0791129  
C        C      0.718200000000     0.005100000000     0.640100000000     0.0791129  
C        C      0.281800000000     0.994900000000     0.359900000000     0.0791129  
C        C      0.750600000000     0.471500000000     0.882900000000     0.0791129  
C        C      0.249400000000     0.528500000000     0.117100000000     0.0791129  
C        C      0.895000000000     0.882900000000     0.471500000000     0.0791129  
C        C      0.105000000000     0.117100000000     0.528500000000     0.0791129  
C        C      0.749400000000     0.617100000000     0.028500000000     0.0791129  
C        C      0.250600000000     0.382900000000     0.971500000000     0.0791129  
C        C      0.605000000000     0.028500000000     0.617100000000     0.0791129  
C        C      0.395000000000     0.971500000000     0.382900000000     0.0791129  
N        N      0.689410000000     0.233920000000     0.158860000000    -0.113422   
N        N      0.310590000000     0.766080000000     0.841140000000    -0.113422   
N        N      0.917810000000     0.158860000000     0.233920000000    -0.113422   
N        N      0.082190000000     0.841140000000     0.766080000000    -0.113422   
N        N      0.810590000000     0.341140000000     0.266080000000    -0.113422   
N        N      0.189410000000     0.658860000000     0.733920000000    -0.113422   
N        N      0.582190000000     0.266080000000     0.341140000000    -0.113422   
N        N      0.417810000000     0.733920000000     0.658860000000    -0.113422   
N        N      0.641870000000     0.260780000000     0.039480000000    -0.113422   
N        N      0.358130000000     0.739220000000     0.960520000000    -0.113422   
N        N      0.057870000000     0.039480000000     0.260780000000    -0.113422   
N        N      0.942130000000     0.960520000000     0.739220000000    -0.113422   
N        N      0.858130000000     0.460520000000     0.239220000000    -0.113422   
N        N      0.141870000000     0.539480000000     0.760780000000    -0.113422   
N        N      0.442130000000     0.239220000000     0.460520000000    -0.113422   
N        N      0.557870000000     0.760780000000     0.539480000000    -0.113422   
N        N      0.604380000000     0.372780000000     0.112460000000    -0.113422   
N        N      0.395620000000     0.627220000000     0.887540000000    -0.113422   
N        N      0.910380000000     0.112460000000     0.372780000000    -0.113422   
N        N      0.089620000000     0.887540000000     0.627220000000    -0.113422   
N        N      0.895620000000     0.387540000000     0.127220000000    -0.113422   
N        N      0.104380000000     0.612460000000     0.872780000000    -0.113422   
N        N      0.589620000000     0.127220000000     0.387540000000    -0.113422   
N        N      0.410380000000     0.872780000000     0.612460000000    -0.113422   
N        N      0.752450000000     0.260850000000     0.829850000000    -0.113422   
N        N      0.247550000000     0.739150000000     0.170150000000    -0.113422   
N        N      0.156850000000     0.829850000000     0.260850000000    -0.113422   
N        N      0.843150000000     0.170150000000     0.739150000000    -0.113422   
N        N      0.747550000000     0.670150000000     0.239150000000    -0.113422   
N        N      0.252450000000     0.329850000000     0.760850000000    -0.113422   
N        N      0.343150000000     0.239150000000     0.670150000000    -0.113422   
N        N      0.656850000000     0.760850000000     0.329850000000    -0.113422   
N        N      0.660700000000     0.151900000000     0.848100000000    -0.113422   
N        N      0.339300000000     0.848100000000     0.151900000000    -0.113422   
N        N      0.839300000000     0.651900000000     0.348100000000    -0.113422   
N        N      0.160700000000     0.348100000000     0.651900000000    -0.113422   
N        N      0.777520000000     0.392420000000     0.910340000000    -0.113422   
N        N      0.222480000000     0.607580000000     0.089660000000    -0.113422   
N        N      0.919720000000     0.910340000000     0.392420000000    -0.113422   
N        N      0.080280000000     0.089660000000     0.607580000000    -0.113422   
N        N      0.722480000000     0.589660000000     0.107580000000    -0.113422   
N        N      0.277520000000     0.410340000000     0.892420000000    -0.113422   
N        N      0.580280000000     0.107580000000     0.589660000000    -0.113422   
N        N      0.419720000000     0.892420000000     0.410340000000    -0.113422   
N        N      0.964640000000     0.431040000000     0.871880000000    -0.113422   
N        N      0.035360000000     0.568960000000     0.128120000000    -0.113422   
N        N      0.732440000000     0.871880000000     0.431040000000    -0.113422   
N        N      0.267560000000     0.128120000000     0.568960000000    -0.113422   
N        N      0.535360000000     0.628120000000     0.068960000000    -0.113422   
N        N      0.464640000000     0.371880000000     0.931040000000    -0.113422   
N        N      0.767560000000     0.068960000000     0.628120000000    -0.113422   
N        N      0.232440000000     0.931040000000     0.371880000000    -0.113422   
N        N      0.978490000000     0.293610000000     0.928010000000    -0.113422   
N        N      0.021510000000     0.706390000000     0.071990000000    -0.113422   
N        N      0.799890000000     0.928010000000     0.293610000000    -0.113422   
N        N      0.200110000000     0.071990000000     0.706390000000    -0.113422   
N        N      0.521510000000     0.571990000000     0.206390000000    -0.113422   
N        N      0.478490000000     0.428010000000     0.793610000000    -0.113422   
N        N      0.700110000000     0.206390000000     0.571990000000    -0.113422   
N        N      0.299890000000     0.793610000000     0.428010000000    -0.113422   
O        O      0.607770000000     0.393180000000     0.174480000000    -0.106074   
O        O      0.392230000000     0.606820000000     0.825520000000    -0.106074   
O        O      0.824570000000     0.174480000000     0.393180000000    -0.106074   
O        O      0.175430000000     0.825520000000     0.606820000000    -0.106074   
O        O      0.892230000000     0.325520000000     0.106820000000    -0.106074   
O        O      0.107770000000     0.674480000000     0.893180000000    -0.106074   
O        O      0.675430000000     0.106820000000     0.325520000000    -0.106074   
O        O      0.324570000000     0.893180000000     0.674480000000    -0.106074   
O        O      0.563500000000     0.420320000000     0.058880000000    -0.106074   
O        O      0.436500000000     0.579680000000     0.941120000000    -0.106074   
O        O      0.957300000000     0.058880000000     0.420320000000    -0.106074   
O        O      0.042700000000     0.941120000000     0.579680000000    -0.106074   
O        O      0.936500000000     0.441120000000     0.079680000000    -0.106074   
O        O      0.063500000000     0.558880000000     0.920320000000    -0.106074   
O        O      0.542700000000     0.079680000000     0.441120000000    -0.106074   
O        O      0.457300000000     0.920320000000     0.558880000000    -0.106074   
O        O      0.920570000000     0.240870000000     0.952990000000    -0.106074   
O        O      0.079430000000     0.759130000000     0.047010000000    -0.106074   
O        O      0.885570000000     0.952990000000     0.240870000000    -0.106074   
O        O      0.114430000000     0.047010000000     0.759130000000    -0.106074   
O        O      0.579430000000     0.547010000000     0.259130000000    -0.106074   
O        O      0.420570000000     0.452990000000     0.740870000000    -0.106074   
O        O      0.614430000000     0.259130000000     0.547010000000    -0.106074   
O        O      0.385570000000     0.740870000000     0.452990000000    -0.106074   
O        O      0.577730000000     0.179310000000     0.907630000000    -0.106074   
O        O      0.422270000000     0.820690000000     0.092370000000    -0.106074   
O        O      0.335330000000     0.907630000000     0.179310000000    -0.106074   
O        O      0.664670000000     0.092370000000     0.820690000000    -0.106074   
O        O      0.922270000000     0.592370000000     0.320690000000    -0.106074   
O        O      0.077730000000     0.407630000000     0.679310000000    -0.106074   
O        O      0.164670000000     0.320690000000     0.592370000000    -0.106074   
O        O      0.835330000000     0.679310000000     0.407630000000    -0.106074   
O        O      0.095440000000     0.283090000000     0.924430000000    -0.106074   
O        O      0.904560000000     0.716910000000     0.075570000000    -0.106074   
O        O      0.697040000000     0.924430000000     0.283090000000    -0.106074   
O        O      0.302960000000     0.075570000000     0.716910000000    -0.106074   
O        O      0.404560000000     0.575570000000     0.216910000000    -0.106074   
O        O      0.595440000000     0.424430000000     0.783090000000    -0.106074   
O        O      0.802960000000     0.216910000000     0.575570000000    -0.106074   
O        O      0.197040000000     0.783090000000     0.424430000000    -0.106074   


