data_ZIF-3_original

_audit_creation_method RASPA-1.0
_audit_creation_date 2022-1-31
_audit_author_name 'Felipe Lopes de Oliveira <felipe.lopes.oliveira@ibm.com>'

_cell_length_a    16.74
_cell_length_b    18.9701
_cell_length_c    18.9701
_cell_angle_alpha 90
_cell_angle_beta  90
_cell_angle_gamma 90
_cell_volume      6024.13

_symmetry_cell_setting          triclinic
_symmetry_space_group_name_Hall 'P 1'
_symmetry_space_group_name_H-M  'P 1'
_symmetry_Int_Tables_number     1

_symmetry_equiv_pos_as_xyz 'x,y,z'

loop_
_atom_site_label
_atom_site_type_symbol
_atom_site_fract_x
_atom_site_fract_y
_atom_site_fract_z
_atom_site_charge
Zn       Zn     0.179240000000     0.605490000000     0.173360000000     0.339388   
Zn       Zn     0.820760000000     0.394510000000     0.826640000000     0.339388   
Zn       Zn     0.179240000000     0.394510000000     0.826640000000     0.339388   
Zn       Zn     0.820760000000     0.605490000000     0.173360000000     0.339388   
Zn       Zn     0.679240000000     0.326640000000     0.105490000000     0.339388   
Zn       Zn     0.320760000000     0.673360000000     0.894510000000     0.339388   
Zn       Zn     0.679240000000     0.673360000000     0.894510000000     0.339388   
Zn       Zn     0.320760000000     0.326640000000     0.105490000000     0.339388   
Zn       Zn     0.320760000000     0.894510000000     0.673360000000     0.339388   
Zn       Zn     0.679240000000     0.105490000000     0.326640000000     0.339388   
Zn       Zn     0.320760000000     0.105490000000     0.326640000000     0.339388   
Zn       Zn     0.679240000000     0.894510000000     0.673360000000     0.339388   
Zn       Zn     0.820760000000     0.173360000000     0.605490000000     0.339388   
Zn       Zn     0.179240000000     0.826640000000     0.394510000000     0.339388   
Zn       Zn     0.820760000000     0.826640000000     0.394510000000     0.339388   
Zn       Zn     0.179240000000     0.173360000000     0.605490000000     0.339388   
H        H      0.130500000000     0.733200000000     0.266800000000     0.0134588  
H        H      0.869500000000     0.266800000000     0.733200000000     0.0134588  
H        H      0.130500000000     0.266800000000     0.733200000000     0.0134588  
H        H      0.869500000000     0.733200000000     0.266800000000     0.0134588  
H        H      0.630500000000     0.233200000000     0.233200000000     0.0134588  
H        H      0.369500000000     0.766800000000     0.766800000000     0.0134588  
H        H      0.630500000000     0.766800000000     0.766800000000     0.0134588  
H        H      0.369500000000     0.233200000000     0.233200000000     0.0134588  
H        H      0.301800000000     0.602700000000     0.305800000000     0.0134588  
H        H      0.698200000000     0.397300000000     0.694200000000     0.0134588  
H        H      0.301800000000     0.397300000000     0.694200000000     0.0134588  
H        H      0.698200000000     0.602700000000     0.305800000000     0.0134588  
H        H      0.801800000000     0.194200000000     0.102700000000     0.0134588  
H        H      0.198200000000     0.805800000000     0.897300000000     0.0134588  
H        H      0.801800000000     0.805800000000     0.897300000000     0.0134588  
H        H      0.198200000000     0.194200000000     0.102700000000     0.0134588  
H        H      0.198200000000     0.897300000000     0.805800000000     0.0134588  
H        H      0.801800000000     0.102700000000     0.194200000000     0.0134588  
H        H      0.198200000000     0.102700000000     0.194200000000     0.0134588  
H        H      0.801800000000     0.897300000000     0.805800000000     0.0134588  
H        H      0.698200000000     0.305800000000     0.602700000000     0.0134588  
H        H      0.301800000000     0.694200000000     0.397300000000     0.0134588  
H        H      0.698200000000     0.694200000000     0.397300000000     0.0134588  
H        H      0.301800000000     0.305800000000     0.602700000000     0.0134588  
H        H      0.218400000000     0.604700000000     0.010600000000     0.0134588  
H        H      0.781600000000     0.395300000000     0.989400000000     0.0134588  
H        H      0.218400000000     0.395300000000     0.989400000000     0.0134588  
H        H      0.781600000000     0.604700000000     0.010600000000     0.0134588  
H        H      0.718400000000     0.489400000000     0.104700000000     0.0134588  
H        H      0.281600000000     0.510600000000     0.895300000000     0.0134588  
H        H      0.718400000000     0.510600000000     0.895300000000     0.0134588  
H        H      0.281600000000     0.489400000000     0.104700000000     0.0134588  
H        H      0.281600000000     0.895300000000     0.510600000000     0.0134588  
H        H      0.718400000000     0.104700000000     0.489400000000     0.0134588  
H        H      0.281600000000     0.104700000000     0.489400000000     0.0134588  
H        H      0.718400000000     0.895300000000     0.510600000000     0.0134588  
H        H      0.781600000000     0.010600000000     0.604700000000     0.0134588  
H        H      0.218400000000     0.989400000000     0.395300000000     0.0134588  
H        H      0.781600000000     0.989400000000     0.395300000000     0.0134588  
H        H      0.218400000000     0.010600000000     0.604700000000     0.0134588  
H        H      0.322100000000     0.718000000000     0.152500000000     0.0134588  
H        H      0.677900000000     0.282000000000     0.847500000000     0.0134588  
H        H      0.322100000000     0.282000000000     0.847500000000     0.0134588  
H        H      0.677900000000     0.718000000000     0.152500000000     0.0134588  
H        H      0.822100000000     0.347500000000     0.218000000000     0.0134588  
H        H      0.177900000000     0.652500000000     0.782000000000     0.0134588  
H        H      0.822100000000     0.652500000000     0.782000000000     0.0134588  
H        H      0.177900000000     0.347500000000     0.218000000000     0.0134588  
H        H      0.177900000000     0.782000000000     0.652500000000     0.0134588  
H        H      0.822100000000     0.218000000000     0.347500000000     0.0134588  
H        H      0.177900000000     0.218000000000     0.347500000000     0.0134588  
H        H      0.822100000000     0.782000000000     0.652500000000     0.0134588  
H        H      0.677900000000     0.152500000000     0.718000000000     0.0134588  
H        H      0.322100000000     0.847500000000     0.282000000000     0.0134588  
H        H      0.677900000000     0.847500000000     0.282000000000     0.0134588  
H        H      0.322100000000     0.152500000000     0.718000000000     0.0134588  
H        H      0.074800000000     0.712500000000     0.084500000000     0.0134588  
H        H      0.925200000000     0.287500000000     0.915500000000     0.0134588  
H        H      0.074800000000     0.287500000000     0.915500000000     0.0134588  
H        H      0.925200000000     0.712500000000     0.084500000000     0.0134588  
H        H      0.574800000000     0.415500000000     0.212500000000     0.0134588  
H        H      0.425200000000     0.584500000000     0.787500000000     0.0134588  
H        H      0.574800000000     0.584500000000     0.787500000000     0.0134588  
H        H      0.425200000000     0.415500000000     0.212500000000     0.0134588  
H        H      0.425200000000     0.787500000000     0.584500000000     0.0134588  
H        H      0.574800000000     0.212500000000     0.415500000000     0.0134588  
H        H      0.425200000000     0.212500000000     0.415500000000     0.0134588  
H        H      0.574800000000     0.787500000000     0.584500000000     0.0134588  
H        H      0.925200000000     0.084500000000     0.712500000000     0.0134588  
H        H      0.074800000000     0.915500000000     0.287500000000     0.0134588  
H        H      0.925200000000     0.915500000000     0.287500000000     0.0134588  
H        H      0.074800000000     0.084500000000     0.712500000000     0.0134588  
H        H      0.000000000000     0.556700000000     0.198900000000     0.0134588  
H        H      0.000000000000     0.443300000000     0.801100000000     0.0134588  
H        H      0.500000000000     0.301100000000     0.056700000000     0.0134588  
H        H      0.500000000000     0.698900000000     0.943300000000     0.0134588  
H        H      0.500000000000     0.943300000000     0.698900000000     0.0134588  
H        H      0.500000000000     0.056700000000     0.301100000000     0.0134588  
H        H      0.000000000000     0.198900000000     0.556700000000     0.0134588  
H        H      0.000000000000     0.801100000000     0.443300000000     0.0134588  
H        H      0.122700000000     0.460400000000     0.250800000000     0.0134588  
H        H      0.877300000000     0.539600000000     0.749200000000     0.0134588  
H        H      0.122700000000     0.539600000000     0.749200000000     0.0134588  
H        H      0.877300000000     0.460400000000     0.250800000000     0.0134588  
H        H      0.622700000000     0.249200000000     0.960400000000     0.0134588  
H        H      0.377300000000     0.750800000000     0.039600000000     0.0134588  
H        H      0.622700000000     0.750800000000     0.039600000000     0.0134588  
H        H      0.377300000000     0.249200000000     0.960400000000     0.0134588  
H        H      0.377300000000     0.039600000000     0.750800000000     0.0134588  
H        H      0.622700000000     0.960400000000     0.249200000000     0.0134588  
H        H      0.377300000000     0.960400000000     0.249200000000     0.0134588  
H        H      0.622700000000     0.039600000000     0.750800000000     0.0134588  
H        H      0.877300000000     0.250800000000     0.460400000000     0.0134588  
H        H      0.122700000000     0.749200000000     0.539600000000     0.0134588  
H        H      0.877300000000     0.749200000000     0.539600000000     0.0134588  
H        H      0.122700000000     0.250800000000     0.460400000000     0.0134588  
C        C      0.172700000000     0.710700000000     0.289300000000     0.0420276  
C        C      0.827300000000     0.289300000000     0.710700000000     0.0420276  
C        C      0.172700000000     0.289300000000     0.710700000000     0.0420276  
C        C      0.827300000000     0.710700000000     0.289300000000     0.0420276  
C        C      0.672700000000     0.210700000000     0.210700000000     0.0420276  
C        C      0.327300000000     0.789300000000     0.789300000000     0.0420276  
C        C      0.672700000000     0.789300000000     0.789300000000     0.0420276  
C        C      0.327300000000     0.210700000000     0.210700000000     0.0420276  
C        C      0.265600000000     0.639800000000     0.309200000000     0.0420276  
C        C      0.734400000000     0.360200000000     0.690800000000     0.0420276  
C        C      0.265600000000     0.360200000000     0.690800000000     0.0420276  
C        C      0.734400000000     0.639800000000     0.309200000000     0.0420276  
C        C      0.765600000000     0.190800000000     0.139800000000     0.0420276  
C        C      0.234400000000     0.809200000000     0.860200000000     0.0420276  
C        C      0.765600000000     0.809200000000     0.860200000000     0.0420276  
C        C      0.234400000000     0.190800000000     0.139800000000     0.0420276  
C        C      0.234400000000     0.860200000000     0.809200000000     0.0420276  
C        C      0.765600000000     0.139800000000     0.190800000000     0.0420276  
C        C      0.234400000000     0.139800000000     0.190800000000     0.0420276  
C        C      0.765600000000     0.860200000000     0.809200000000     0.0420276  
C        C      0.734400000000     0.309200000000     0.639800000000     0.0420276  
C        C      0.265600000000     0.690800000000     0.360200000000     0.0420276  
C        C      0.734400000000     0.690800000000     0.360200000000     0.0420276  
C        C      0.265600000000     0.309200000000     0.639800000000     0.0420276  
C        C      0.250500000000     0.638200000000     0.032600000000     0.0420276  
C        C      0.749500000000     0.361800000000     0.967400000000     0.0420276  
C        C      0.250500000000     0.361800000000     0.967400000000     0.0420276  
C        C      0.749500000000     0.638200000000     0.032600000000     0.0420276  
C        C      0.750500000000     0.467400000000     0.138200000000     0.0420276  
C        C      0.249500000000     0.532600000000     0.861800000000     0.0420276  
C        C      0.750500000000     0.532600000000     0.861800000000     0.0420276  
C        C      0.249500000000     0.467400000000     0.138200000000     0.0420276  
C        C      0.249500000000     0.861800000000     0.532600000000     0.0420276  
C        C      0.750500000000     0.138200000000     0.467400000000     0.0420276  
C        C      0.249500000000     0.138200000000     0.467400000000     0.0420276  
C        C      0.750500000000     0.861800000000     0.532600000000     0.0420276  
C        C      0.749500000000     0.032600000000     0.638200000000     0.0420276  
C        C      0.250500000000     0.967400000000     0.361800000000     0.0420276  
C        C      0.749500000000     0.967400000000     0.361800000000     0.0420276  
C        C      0.250500000000     0.032600000000     0.638200000000     0.0420276  
C        C      0.306600000000     0.699200000000     0.109300000000     0.0420276  
C        C      0.693400000000     0.300800000000     0.890700000000     0.0420276  
C        C      0.306600000000     0.300800000000     0.890700000000     0.0420276  
C        C      0.693400000000     0.699200000000     0.109300000000     0.0420276  
C        C      0.806600000000     0.390700000000     0.199200000000     0.0420276  
C        C      0.193400000000     0.609300000000     0.800800000000     0.0420276  
C        C      0.806600000000     0.609300000000     0.800800000000     0.0420276  
C        C      0.193400000000     0.390700000000     0.199200000000     0.0420276  
C        C      0.193400000000     0.800800000000     0.609300000000     0.0420276  
C        C      0.806600000000     0.199200000000     0.390700000000     0.0420276  
C        C      0.193400000000     0.199200000000     0.390700000000     0.0420276  
C        C      0.806600000000     0.800800000000     0.609300000000     0.0420276  
C        C      0.693400000000     0.109300000000     0.699200000000     0.0420276  
C        C      0.306600000000     0.890700000000     0.300800000000     0.0420276  
C        C      0.693400000000     0.890700000000     0.300800000000     0.0420276  
C        C      0.306600000000     0.109300000000     0.699200000000     0.0420276  
C        C      0.042200000000     0.681200000000     0.108800000000     0.0420276  
C        C      0.957800000000     0.318800000000     0.891200000000     0.0420276  
C        C      0.042200000000     0.318800000000     0.891200000000     0.0420276  
C        C      0.957800000000     0.681200000000     0.108800000000     0.0420276  
C        C      0.542200000000     0.391200000000     0.181200000000     0.0420276  
C        C      0.457800000000     0.608800000000     0.818800000000     0.0420276  
C        C      0.542200000000     0.608800000000     0.818800000000     0.0420276  
C        C      0.457800000000     0.391200000000     0.181200000000     0.0420276  
C        C      0.457800000000     0.818800000000     0.608800000000     0.0420276  
C        C      0.542200000000     0.181200000000     0.391200000000     0.0420276  
C        C      0.457800000000     0.181200000000     0.391200000000     0.0420276  
C        C      0.542200000000     0.818800000000     0.608800000000     0.0420276  
C        C      0.957800000000     0.108800000000     0.681200000000     0.0420276  
C        C      0.042200000000     0.891200000000     0.318800000000     0.0420276  
C        C      0.957800000000     0.891200000000     0.318800000000     0.0420276  
C        C      0.042200000000     0.108800000000     0.681200000000     0.0420276  
C        C      0.000000000000     0.597100000000     0.171100000000     0.0420276  
C        C      0.000000000000     0.402900000000     0.828900000000     0.0420276  
C        C      0.500000000000     0.328900000000     0.097100000000     0.0420276  
C        C      0.500000000000     0.671100000000     0.902900000000     0.0420276  
C        C      0.500000000000     0.902900000000     0.671100000000     0.0420276  
C        C      0.500000000000     0.097100000000     0.328900000000     0.0420276  
C        C      0.000000000000     0.171100000000     0.597100000000     0.0420276  
C        C      0.000000000000     0.828900000000     0.402900000000     0.0420276  
C        C      0.162300000000     0.452700000000     0.217300000000     0.0420276  
C        C      0.837700000000     0.547300000000     0.782700000000     0.0420276  
C        C      0.162300000000     0.547300000000     0.782700000000     0.0420276  
C        C      0.837700000000     0.452700000000     0.217300000000     0.0420276  
C        C      0.662300000000     0.282700000000     0.952700000000     0.0420276  
C        C      0.337700000000     0.717300000000     0.047300000000     0.0420276  
C        C      0.662300000000     0.717300000000     0.047300000000     0.0420276  
C        C      0.337700000000     0.282700000000     0.952700000000     0.0420276  
C        C      0.337700000000     0.047300000000     0.717300000000     0.0420276  
C        C      0.662300000000     0.952700000000     0.282700000000     0.0420276  
C        C      0.337700000000     0.952700000000     0.282700000000     0.0420276  
C        C      0.662300000000     0.047300000000     0.717300000000     0.0420276  
C        C      0.837700000000     0.217300000000     0.452700000000     0.0420276  
C        C      0.162300000000     0.782700000000     0.547300000000     0.0420276  
C        C      0.837700000000     0.782700000000     0.547300000000     0.0420276  
C        C      0.162300000000     0.217300000000     0.452700000000     0.0420276  
N        N      0.204400000000     0.652200000000     0.264600000000    -0.168077   
N        N      0.795600000000     0.347800000000     0.735400000000    -0.168077   
N        N      0.204400000000     0.347800000000     0.735400000000    -0.168077   
N        N      0.795600000000     0.652200000000     0.264600000000    -0.168077   
N        N      0.704400000000     0.235400000000     0.152200000000    -0.168077   
N        N      0.295600000000     0.764600000000     0.847800000000    -0.168077   
N        N      0.704400000000     0.764600000000     0.847800000000    -0.168077   
N        N      0.295600000000     0.235400000000     0.152200000000    -0.168077   
N        N      0.295600000000     0.847800000000     0.764600000000    -0.168077   
N        N      0.704400000000     0.152200000000     0.235400000000    -0.168077   
N        N      0.295600000000     0.152200000000     0.235400000000    -0.168077   
N        N      0.704400000000     0.847800000000     0.764600000000    -0.168077   
N        N      0.795600000000     0.264600000000     0.652200000000    -0.168077   
N        N      0.204400000000     0.735400000000     0.347800000000    -0.168077   
N        N      0.795600000000     0.735400000000     0.347800000000    -0.168077   
N        N      0.204400000000     0.264600000000     0.652200000000    -0.168077   
N        N      0.248800000000     0.649200000000     0.100600000000    -0.168077   
N        N      0.751200000000     0.350800000000     0.899400000000    -0.168077   
N        N      0.248800000000     0.350800000000     0.899400000000    -0.168077   
N        N      0.751200000000     0.649200000000     0.100600000000    -0.168077   
N        N      0.748800000000     0.399400000000     0.149200000000    -0.168077   
N        N      0.251200000000     0.600600000000     0.850800000000    -0.168077   
N        N      0.748800000000     0.600600000000     0.850800000000    -0.168077   
N        N      0.251200000000     0.399400000000     0.149200000000    -0.168077   
N        N      0.251200000000     0.850800000000     0.600600000000    -0.168077   
N        N      0.748800000000     0.149200000000     0.399400000000    -0.168077   
N        N      0.251200000000     0.149200000000     0.399400000000    -0.168077   
N        N      0.748800000000     0.850800000000     0.600600000000    -0.168077   
N        N      0.751200000000     0.100600000000     0.649200000000    -0.168077   
N        N      0.248800000000     0.899400000000     0.350800000000    -0.168077   
N        N      0.751200000000     0.899400000000     0.350800000000    -0.168077   
N        N      0.248800000000     0.100600000000     0.649200000000    -0.168077   
N        N      0.067100000000     0.628000000000     0.149900000000    -0.168077   
N        N      0.932900000000     0.372000000000     0.850100000000    -0.168077   
N        N      0.067100000000     0.372000000000     0.850100000000    -0.168077   
N        N      0.932900000000     0.628000000000     0.149900000000    -0.168077   
N        N      0.567100000000     0.350100000000     0.128000000000    -0.168077   
N        N      0.432900000000     0.649900000000     0.872000000000    -0.168077   
N        N      0.567100000000     0.649900000000     0.872000000000    -0.168077   
N        N      0.432900000000     0.350100000000     0.128000000000    -0.168077   
N        N      0.432900000000     0.872000000000     0.649900000000    -0.168077   
N        N      0.567100000000     0.128000000000     0.350100000000    -0.168077   
N        N      0.432900000000     0.128000000000     0.350100000000    -0.168077   
N        N      0.567100000000     0.872000000000     0.649900000000    -0.168077   
N        N      0.932900000000     0.149900000000     0.628000000000    -0.168077   
N        N      0.067100000000     0.850100000000     0.372000000000    -0.168077   
N        N      0.932900000000     0.850100000000     0.372000000000    -0.168077   
N        N      0.067100000000     0.149900000000     0.628000000000    -0.168077   
N        N      0.199200000000     0.502100000000     0.177900000000    -0.168077   
N        N      0.800800000000     0.497900000000     0.822100000000    -0.168077   
N        N      0.199200000000     0.497900000000     0.822100000000    -0.168077   
N        N      0.800800000000     0.502100000000     0.177900000000    -0.168077   
N        N      0.699200000000     0.322100000000     0.002100000000    -0.168077   
N        N      0.300800000000     0.677900000000     0.997900000000    -0.168077   
N        N      0.699200000000     0.677900000000     0.997900000000    -0.168077   
N        N      0.300800000000     0.322100000000     0.002100000000    -0.168077   
N        N      0.300800000000     0.997900000000     0.677900000000    -0.168077   
N        N      0.699200000000     0.002100000000     0.322100000000    -0.168077   
N        N      0.300800000000     0.002100000000     0.322100000000    -0.168077   
N        N      0.699200000000     0.997900000000     0.677900000000    -0.168077   
N        N      0.800800000000     0.177900000000     0.502100000000    -0.168077   
N        N      0.199200000000     0.822100000000     0.497900000000    -0.168077   
N        N      0.800800000000     0.822100000000     0.497900000000    -0.168077   
N        N      0.199200000000     0.177900000000     0.502100000000    -0.168077   


