data_Zn-DOBDC_original

_audit_creation_method RASPA-1.0
_audit_creation_date 2022-1-28
_audit_author_name 'Felipe Lopes de Oliveira <felipe.lopes.oliveira@ibm.com>'

_cell_length_a    6.8365
_cell_length_b    15.1444
_cell_length_c    15.1444
_cell_angle_alpha 117.777
_cell_angle_beta  98.6544
_cell_angle_gamma 98.6544
_cell_volume      1327.16

_symmetry_cell_setting          triclinic
_symmetry_space_group_name_Hall 'P 1'
_symmetry_space_group_name_H-M  'P 1'
_symmetry_Int_Tables_number     1

_symmetry_equiv_pos_as_xyz 'x,y,z'

loop_
_atom_site_label
_atom_site_type_symbol
_atom_site_fract_x
_atom_site_fract_y
_atom_site_fract_z
_atom_site_charge
Zn       Zn     0.032820000000     0.737680000000     0.422080000000     0.458774   
Zn       Zn     0.295140000000     0.684400000000     0.262320000000     0.458774   
Zn       Zn     0.610740000000     0.577920000000     0.315600000000     0.458774   
Zn       Zn     0.967180000000     0.262320000000     0.577920000000     0.458774   
Zn       Zn     0.704860000000     0.315600000000     0.737680000000     0.458774   
Zn       Zn     0.389260000000     0.422080000000     0.684400000000     0.458774   
H        H      0.699200000000     0.547800000000     0.529790000000     0.0952814  
H        H      0.151400000000     0.981990000000     0.452200000000     0.0952814  
H        H      0.169410000000     0.470210000000     0.018010000000     0.0952814  
H        H      0.300800000000     0.452200000000     0.470210000000     0.0952814  
H        H      0.848600000000     0.018010000000     0.547800000000     0.0952814  
H        H      0.830590000000     0.529790000000     0.981990000000     0.0952814  
C        C      0.237600000000     0.562060000000     0.385930000000     0.0810008  
C        C      0.675540000000     0.823870000000     0.437940000000     0.0810008  
C        C      0.851670000000     0.614070000000     0.176130000000     0.0810008  
C        C      0.762400000000     0.437940000000     0.614070000000     0.0810008  
C        C      0.324460000000     0.176130000000     0.562060000000     0.0810008  
C        C      0.148330000000     0.385930000000     0.823870000000     0.0810008  
C        C      0.111660000000     0.534500000000     0.446670000000     0.0810008  
C        C      0.577160000000     0.912170000000     0.465500000000     0.0810008  
C        C      0.664990000000     0.553330000000     0.087830000000     0.0810008  
C        C      0.888340000000     0.465500000000     0.553330000000     0.0810008  
C        C      0.422840000000     0.087830000000     0.534500000000     0.0810008  
C        C      0.335010000000     0.446670000000     0.912170000000     0.0810008  
C        C      0.929390000000     0.565800000000     0.465260000000     0.0810008  
C        C      0.363590000000     0.899460000000     0.434200000000     0.0810008  
C        C      0.464130000000     0.534740000000     0.100540000000     0.0810008  
C        C      0.070610000000     0.434200000000     0.534740000000     0.0810008  
C        C      0.636410000000     0.100540000000     0.565800000000     0.0810008  
C        C      0.535870000000     0.465260000000     0.899460000000     0.0810008  
C        C      0.822940000000     0.528880000000     0.517630000000     0.0810008  
C        C      0.294060000000     0.988750000000     0.471120000000     0.0810008  
C        C      0.305310000000     0.482370000000     0.011250000000     0.0810008  
C        C      0.177060000000     0.471120000000     0.482370000000     0.0810008  
C        C      0.705940000000     0.011250000000     0.528880000000     0.0810008  
C        C      0.694690000000     0.517630000000     0.988750000000     0.0810008  
O        O      0.177800000000     0.615260000000     0.348330000000    -0.292686   
O        O      0.562540000000     0.733070000000     0.384740000000    -0.292686   
O        O      0.829470000000     0.651670000000     0.266930000000    -0.292686   
O        O      0.822200000000     0.384740000000     0.651670000000    -0.292686   
O        O      0.437460000000     0.266930000000     0.615260000000    -0.292686   
O        O      0.170530000000     0.348330000000     0.733070000000    -0.292686   
O        O      0.397270000000     0.530530000000     0.374470000000    -0.292686   
O        O      0.866740000000     0.843940000000     0.469470000000    -0.292686   
O        O      0.022800000000     0.625530000000     0.156060000000    -0.292686   
O        O      0.602730000000     0.469470000000     0.625530000000    -0.292686   
O        O      0.133260000000     0.156060000000     0.530530000000    -0.292686   
O        O      0.977200000000     0.374470000000     0.843940000000    -0.292686   
O        O      0.854510000000     0.628710000000     0.436940000000    -0.292686   
O        O      0.225800000000     0.808230000000     0.371290000000    -0.292686   
O        O      0.417570000000     0.563060000000     0.191770000000    -0.292686   
O        O      0.145490000000     0.371290000000     0.563060000000    -0.292686   
O        O      0.774200000000     0.191770000000     0.628710000000    -0.292686   
O        O      0.582430000000     0.436940000000     0.808230000000    -0.292686   


