data_ZnBDC_original

_audit_creation_method RASPA-1.0
_audit_creation_date 2022-1-30
_audit_author_name 'Felipe Lopes de Oliveira <felipe.lopes.oliveira@ibm.com>'

_cell_length_a    6.723
_cell_length_b    12.435
_cell_length_c    15.481
_cell_angle_alpha 90
_cell_angle_beta  90
_cell_angle_gamma 102.825
_cell_volume      1261.93

_symmetry_cell_setting          triclinic
_symmetry_space_group_name_Hall 'P 1'
_symmetry_space_group_name_H-M  'P 1'
_symmetry_Int_Tables_number     1

_symmetry_equiv_pos_as_xyz 'x,y,z'

loop_
_atom_site_label
_atom_site_type_symbol
_atom_site_fract_x
_atom_site_fract_y
_atom_site_fract_z
_atom_site_charge
Zn       Zn     0.200280000000     0.077170000000     0.005080000000     0.451524   
Zn       Zn     0.299720000000     0.422830000000     0.505080000000     0.451524   
Zn       Zn     0.799720000000     0.922830000000     0.994920000000     0.451524   
Zn       Zn     0.700280000000     0.577170000000     0.494920000000     0.451524   
H        H      0.077100000000     0.264000000000     0.227800000000     0.0619467  
H        H      0.422900000000     0.236000000000     0.727800000000     0.0619467  
H        H      0.922900000000     0.736000000000     0.772200000000     0.0619467  
H        H      0.577100000000     0.764000000000     0.272200000000     0.0619467  
H        H      0.963000000000     0.368600000000     0.330600000000     0.0619467  
H        H      0.537000000000     0.131400000000     0.830600000000     0.0619467  
H        H      0.037000000000     0.631400000000     0.669400000000     0.0619467  
H        H      0.463000000000     0.868600000000     0.169400000000     0.0619467  
H        H      0.397100000000     0.181800000000     0.305500000000     0.0619467  
H        H      0.102900000000     0.318200000000     0.805500000000     0.0619467  
H        H      0.602900000000     0.818200000000     0.694500000000     0.0619467  
H        H      0.897100000000     0.681800000000     0.194500000000     0.0619467  
H        H      0.510900000000     0.079600000000     0.199900000000     0.0619467  
H        H      0.989100000000     0.420400000000     0.699900000000     0.0619467  
H        H      0.489100000000     0.920400000000     0.800100000000     0.0619467  
H        H      0.010900000000     0.579600000000     0.300100000000     0.0619467  
C        C      0.879900000000     0.101000000000     0.129060000000     0.0582025  
C        C      0.620100000000     0.399000000000     0.629060000000     0.0582025  
C        C      0.120100000000     0.899000000000     0.870940000000     0.0582025  
C        C      0.379900000000     0.601000000000     0.370940000000     0.0582025  
C        C      0.805400000000     0.162400000000     0.201120000000     0.0582025  
C        C      0.694600000000     0.337600000000     0.701120000000     0.0582025  
C        C      0.194600000000     0.837600000000     0.798880000000     0.0582025  
C        C      0.305400000000     0.662400000000     0.298880000000     0.0582025  
C        C      0.939500000000     0.248400000000     0.242400000000     0.0582025  
C        C      0.560500000000     0.251600000000     0.742400000000     0.0582025  
C        C      0.060500000000     0.751600000000     0.757600000000     0.0582025  
C        C      0.439500000000     0.748400000000     0.257600000000     0.0582025  
C        C      0.871700000000     0.310600000000     0.304400000000     0.0582025  
C        C      0.628300000000     0.189400000000     0.804400000000     0.0582025  
C        C      0.128300000000     0.689400000000     0.695600000000     0.0582025  
C        C      0.371700000000     0.810600000000     0.195600000000     0.0582025  
C        C      0.667200000000     0.287300000000     0.328450000000     0.0582025  
C        C      0.832800000000     0.212700000000     0.828450000000     0.0582025  
C        C      0.332800000000     0.712700000000     0.671550000000     0.0582025  
C        C      0.167200000000     0.787300000000     0.171550000000     0.0582025  
C        C      0.533600000000     0.199400000000     0.289100000000     0.0582025  
C        C      0.966400000000     0.300600000000     0.789100000000     0.0582025  
C        C      0.466400000000     0.800600000000     0.710900000000     0.0582025  
C        C      0.033600000000     0.699400000000     0.210900000000     0.0582025  
C        C      0.601900000000     0.137800000000     0.225900000000     0.0582025  
C        C      0.898100000000     0.362200000000     0.725900000000     0.0582025  
C        C      0.398100000000     0.862200000000     0.774100000000     0.0582025  
C        C      0.101900000000     0.637800000000     0.274100000000     0.0582025  
C        C      0.592000000000     0.357000000000     0.394400000000     0.0582025  
C        C      0.908000000000     0.143000000000     0.894400000000     0.0582025  
C        C      0.408000000000     0.643000000000     0.605600000000     0.0582025  
C        C      0.092000000000     0.857000000000     0.105600000000     0.0582025  
O        O      0.060500000000     0.133200000000     0.105070000000    -0.291233   
O        O      0.439500000000     0.366800000000     0.605070000000    -0.291233   
O        O      0.939500000000     0.866800000000     0.894930000000    -0.291233   
O        O      0.560500000000     0.633200000000     0.394930000000    -0.291233   
O        O      0.756600000000     0.020820000000     0.097090000000    -0.291233   
O        O      0.743400000000     0.479180000000     0.597090000000    -0.291233   
O        O      0.243400000000     0.979180000000     0.902910000000    -0.291233   
O        O      0.256600000000     0.520820000000     0.402910000000    -0.291233   
O        O      0.715800000000     0.441170000000     0.420570000000    -0.291233   
O        O      0.784200000000     0.058830000000     0.920570000000    -0.291233   
O        O      0.284200000000     0.558830000000     0.579430000000    -0.291233   
O        O      0.215800000000     0.941170000000     0.079430000000    -0.291233   
O        O      0.412400000000     0.327800000000     0.420020000000    -0.291233   
O        O      0.087600000000     0.172200000000     0.920020000000    -0.291233   
O        O      0.587600000000     0.672200000000     0.579980000000    -0.291233   
O        O      0.912400000000     0.827800000000     0.079980000000    -0.291233   


