data_ZNGLUD_original

_audit_creation_method RASPA-1.0
_audit_creation_date 2022-1-31
_audit_author_name 'Felipe Lopes de Oliveira <felipe.lopes.oliveira@ibm.com>'

_cell_length_a    7.22
_cell_length_b    10.463
_cell_length_c    11.19
_cell_angle_alpha 90
_cell_angle_beta  90
_cell_angle_gamma 90
_cell_volume      845.325

_symmetry_cell_setting          triclinic
_symmetry_space_group_name_Hall 'P 1'
_symmetry_space_group_name_H-M  'P 1'
_symmetry_Int_Tables_number     1

_symmetry_equiv_pos_as_xyz 'x,y,z'

loop_
_atom_site_label
_atom_site_type_symbol
_atom_site_fract_x
_atom_site_fract_y
_atom_site_fract_z
_atom_site_charge
Zn       Zn     0.372100000000     0.678800000000     0.209200000000     0.410471   
Zn       Zn     0.872100000000     0.321200000000     0.290800000000     0.410471   
Zn       Zn     0.127900000000     0.178800000000     0.790800000000     0.410471   
Zn       Zn     0.627900000000     0.821200000000     0.709200000000     0.410471   
H        H      0.401000000000     0.460000000000     0.476000000000     0.0997519  
H        H      0.129000000000     0.503000000000     0.574000000000     0.0997519  
H        H      0.248000000000     0.629000000000     0.599000000000     0.0997519  
H        H      0.950000000000     0.632000000000     0.427000000000     0.0997519  
H        H      0.120000000000     0.757000000000     0.456000000000     0.0997519  
H        H      0.549000000000     0.632000000000     0.379000000000     0.0997519  
H        H      0.398000000000     0.709000000000     0.426000000000     0.0997519  
H        H      0.901000000000     0.540000000000     0.024000000000     0.0997519  
H        H      0.629000000000     0.497000000000     0.926000000000     0.0997519  
H        H      0.748000000000     0.371000000000     0.901000000000     0.0997519  
H        H      0.450000000000     0.368000000000     0.073000000000     0.0997519  
H        H      0.620000000000     0.243000000000     0.044000000000     0.0997519  
H        H      0.049000000000     0.368000000000     0.121000000000     0.0997519  
H        H      0.898000000000     0.291000000000     0.074000000000     0.0997519  
H        H      0.099000000000     0.960000000000     0.524000000000     0.0997519  
H        H      0.371000000000     0.003000000000     0.426000000000     0.0997519  
H        H      0.252000000000     0.129000000000     0.401000000000     0.0997519  
H        H      0.550000000000     0.132000000000     0.573000000000     0.0997519  
H        H      0.380000000000     0.257000000000     0.544000000000     0.0997519  
H        H      0.951000000000     0.132000000000     0.621000000000     0.0997519  
H        H      0.102000000000     0.209000000000     0.574000000000     0.0997519  
H        H      0.599000000000     0.040000000000     0.976000000000     0.0997519  
H        H      0.871000000000     0.997000000000     0.074000000000     0.0997519  
H        H      0.752000000000     0.871000000000     0.099000000000     0.0997519  
H        H      0.050000000000     0.868000000000     0.927000000000     0.0997519  
H        H      0.880000000000     0.743000000000     0.956000000000     0.0997519  
H        H      0.451000000000     0.868000000000     0.879000000000     0.0997519  
H        H      0.602000000000     0.791000000000     0.926000000000     0.0997519  
C        C      0.210200000000     0.469700000000     0.339900000000     0.0673186  
C        C      0.318600000000     0.537700000000     0.439500000000     0.0673186  
C        C      0.187200000000     0.584300000000     0.535900000000     0.0673186  
C        C      0.036100000000     0.672500000000     0.490400000000     0.0673186  
C        C      0.912100000000     0.724800000000     0.589000000000     0.0673186  
C        C      0.710200000000     0.530300000000     0.160100000000     0.0673186  
C        C      0.818600000000     0.462300000000     0.060500000000     0.0673186  
C        C      0.687200000000     0.415700000000     0.964100000000     0.0673186  
C        C      0.536100000000     0.327500000000     0.009600000000     0.0673186  
C        C      0.412100000000     0.275200000000     0.911000000000     0.0673186  
C        C      0.289800000000     0.969700000000     0.660100000000     0.0673186  
C        C      0.181400000000     0.037700000000     0.560500000000     0.0673186  
C        C      0.312800000000     0.084300000000     0.464100000000     0.0673186  
C        C      0.463900000000     0.172500000000     0.509600000000     0.0673186  
C        C      0.587900000000     0.224800000000     0.411000000000     0.0673186  
C        C      0.789800000000     0.030300000000     0.839900000000     0.0673186  
C        C      0.681400000000     0.962300000000     0.939500000000     0.0673186  
C        C      0.812800000000     0.915700000000     0.035900000000     0.0673186  
C        C      0.963900000000     0.827500000000     0.990400000000     0.0673186  
C        C      0.087900000000     0.775200000000     0.089000000000     0.0673186  
N        N      0.432600000000     0.641900000000     0.389800000000    -0.320019   
N        N      0.932600000000     0.358100000000     0.110200000000    -0.320019   
N        N      0.067400000000     0.141900000000     0.610200000000    -0.320019   
N        N      0.567400000000     0.858100000000     0.889800000000    -0.320019   
O        O      0.226400000000     0.506500000000     0.234600000000    -0.281327   
O        O      0.107100000000     0.378800000000     0.374600000000    -0.281327   
O        O      0.765800000000     0.784700000000     0.554200000000    -0.281327   
O        O      0.944600000000     0.708600000000     0.697200000000    -0.281327   
O        O      0.726400000000     0.493500000000     0.265400000000    -0.281327   
O        O      0.607100000000     0.621200000000     0.125400000000    -0.281327   
O        O      0.265800000000     0.215300000000     0.945800000000    -0.281327   
O        O      0.444600000000     0.291400000000     0.802800000000    -0.281327   
O        O      0.273600000000     0.006500000000     0.765400000000    -0.281327   
O        O      0.392900000000     0.878800000000     0.625400000000    -0.281327   
O        O      0.734200000000     0.284700000000     0.445800000000    -0.281327   
O        O      0.555400000000     0.208600000000     0.302800000000    -0.281327   
O        O      0.773600000000     0.993500000000     0.734600000000    -0.281327   
O        O      0.892900000000     0.121200000000     0.874600000000    -0.281327   
O        O      0.234200000000     0.715300000000     0.054200000000    -0.281327   
O        O      0.055400000000     0.791400000000     0.197200000000    -0.281327   


