data_ABUWOJ_original

_audit_creation_method RASPA-1.0
_audit_creation_date 2022-1-31
_audit_author_name 'Felipe Lopes de Oliveira <felipe.lopes.oliveira@ibm.com>'

_cell_length_a    14.4988
_cell_length_b    17.1659
_cell_length_c    18.1536
_cell_angle_alpha 90
_cell_angle_beta  90
_cell_angle_gamma 90
_cell_volume      4518.16

_symmetry_cell_setting          triclinic
_symmetry_space_group_name_Hall 'P 1'
_symmetry_space_group_name_H-M  'P 1'
_symmetry_Int_Tables_number     1

_symmetry_equiv_pos_as_xyz 'x,y,z'

loop_
_atom_site_label
_atom_site_type_symbol
_atom_site_fract_x
_atom_site_fract_y
_atom_site_fract_z
_atom_site_charge
Zn       Zn     0.444490000000     0.939480000000     0.451770000000     0.447335   
Zn       Zn     0.652920000000     0.947050000000     0.397640000000     0.447335   
Zn       Zn     0.555510000000     0.439480000000     0.048230000000     0.447335   
Zn       Zn     0.347080000000     0.447050000000     0.102360000000     0.447335   
Zn       Zn     0.555510000000     0.060520000000     0.548230000000     0.447335   
Zn       Zn     0.347080000000     0.052950000000     0.602360000000     0.447335   
Zn       Zn     0.444490000000     0.560520000000     0.951770000000     0.447335   
Zn       Zn     0.652920000000     0.552950000000     0.897640000000     0.447335   
Zn       Zn     0.055510000000     0.060520000000     0.951770000000     0.447335   
Zn       Zn     0.847080000000     0.052950000000     0.897640000000     0.447335   
Zn       Zn     0.944490000000     0.560520000000     0.548230000000     0.447335   
Zn       Zn     0.152920000000     0.552950000000     0.602360000000     0.447335   
Zn       Zn     0.944490000000     0.939480000000     0.048230000000     0.447335   
Zn       Zn     0.152920000000     0.947050000000     0.102360000000     0.447335   
Zn       Zn     0.055510000000     0.439480000000     0.451770000000     0.447335   
Zn       Zn     0.847080000000     0.447050000000     0.397640000000     0.447335   
H        H      0.609700000000     0.927600000000     0.521100000000     0.0788144  
H        H      0.369100000000     0.120800000000     0.302000000000     0.0788144  
H        H      0.338800000000     0.231800000000     0.233400000000     0.0788144  
H        H      0.596000000000     0.225200000000     0.153100000000     0.0788144  
H        H      0.626500000000     0.115800000000     0.222700000000     0.0788144  
H        H      0.935800000000     0.891100000000     0.553700000000     0.0788144  
H        H      0.921600000000     0.065100000000     0.407500000000     0.0788144  
H        H      0.390300000000     0.427600000000     0.978900000000     0.0788144  
H        H      0.630900000000     0.620800000000     0.198000000000     0.0788144  
H        H      0.661200000000     0.731800000000     0.266600000000     0.0788144  
H        H      0.404000000000     0.725200000000     0.346900000000     0.0788144  
H        H      0.373500000000     0.615800000000     0.277300000000     0.0788144  
H        H      0.064200000000     0.391100000000     0.946300000000     0.0788144  
H        H      0.078400000000     0.565100000000     0.092500000000     0.0788144  
H        H      0.390300000000     0.072400000000     0.478900000000     0.0788144  
H        H      0.630900000000     0.879200000000     0.698000000000     0.0788144  
H        H      0.661200000000     0.768200000000     0.766600000000     0.0788144  
H        H      0.404000000000     0.774800000000     0.846900000000     0.0788144  
H        H      0.373500000000     0.884200000000     0.777300000000     0.0788144  
H        H      0.064200000000     0.108900000000     0.446300000000     0.0788144  
H        H      0.078400000000     0.934900000000     0.592500000000     0.0788144  
H        H      0.609700000000     0.572400000000     0.021100000000     0.0788144  
H        H      0.369100000000     0.379200000000     0.802000000000     0.0788144  
H        H      0.338800000000     0.268200000000     0.733400000000     0.0788144  
H        H      0.596000000000     0.274800000000     0.653100000000     0.0788144  
H        H      0.626500000000     0.384200000000     0.722700000000     0.0788144  
H        H      0.935800000000     0.608900000000     0.053700000000     0.0788144  
H        H      0.921600000000     0.434900000000     0.907500000000     0.0788144  
H        H      0.890300000000     0.072400000000     0.021100000000     0.0788144  
H        H      0.130900000000     0.879200000000     0.802000000000     0.0788144  
H        H      0.161200000000     0.768200000000     0.733400000000     0.0788144  
H        H      0.904000000000     0.774800000000     0.653100000000     0.0788144  
H        H      0.873500000000     0.884200000000     0.722700000000     0.0788144  
H        H      0.564200000000     0.108900000000     0.053700000000     0.0788144  
H        H      0.578400000000     0.934900000000     0.907500000000     0.0788144  
H        H      0.109700000000     0.572400000000     0.478900000000     0.0788144  
H        H      0.869100000000     0.379200000000     0.698000000000     0.0788144  
H        H      0.838800000000     0.268200000000     0.766600000000     0.0788144  
H        H      0.096000000000     0.274800000000     0.846900000000     0.0788144  
H        H      0.126500000000     0.384200000000     0.777300000000     0.0788144  
H        H      0.435800000000     0.608900000000     0.446300000000     0.0788144  
H        H      0.421600000000     0.434900000000     0.592500000000     0.0788144  
H        H      0.109700000000     0.927600000000     0.978900000000     0.0788144  
H        H      0.869100000000     0.120800000000     0.198000000000     0.0788144  
H        H      0.838800000000     0.231800000000     0.266600000000     0.0788144  
H        H      0.096000000000     0.225200000000     0.346900000000     0.0788144  
H        H      0.126500000000     0.115800000000     0.277300000000     0.0788144  
H        H      0.435800000000     0.891100000000     0.946300000000     0.0788144  
H        H      0.421600000000     0.065100000000     0.092500000000     0.0788144  
H        H      0.890300000000     0.427600000000     0.521100000000     0.0788144  
H        H      0.130900000000     0.620800000000     0.302000000000     0.0788144  
H        H      0.161200000000     0.731800000000     0.233400000000     0.0788144  
H        H      0.904000000000     0.725200000000     0.153100000000     0.0788144  
H        H      0.873500000000     0.615800000000     0.222700000000     0.0788144  
H        H      0.564200000000     0.391100000000     0.553700000000     0.0788144  
H        H      0.578400000000     0.565100000000     0.407500000000     0.0788144  
C        C      0.522800000000     0.040900000000     0.320700000000     0.0554556  
C        C      0.500700000000     0.107600000000     0.270400000000     0.0554556  
C        C      0.415200000000     0.142100000000     0.272600000000     0.0554556  
C        C      0.396800000000     0.208600000000     0.231400000000     0.0554556  
C        C      0.465400000000     0.240200000000     0.187300000000     0.0554556  
C        C      0.550600000000     0.204800000000     0.183700000000     0.0554556  
C        C      0.568600000000     0.139100000000     0.225100000000     0.0554556  
C        C      0.449300000000     0.314200000000     0.144700000000     0.0554556  
C        C      0.819700000000     0.945100000000     0.454300000000     0.0554556  
C        C      0.914200000000     0.973500000000     0.476900000000     0.0554556  
C        C      0.961600000000     0.935100000000     0.532000000000     0.0554556  
C        C      0.952900000000     0.038800000000     0.444700000000     0.0554556  
C        C      0.477200000000     0.540900000000     0.179300000000     0.0554556  
C        C      0.499300000000     0.607600000000     0.229600000000     0.0554556  
C        C      0.584800000000     0.642100000000     0.227400000000     0.0554556  
C        C      0.603200000000     0.708600000000     0.268600000000     0.0554556  
C        C      0.534600000000     0.740200000000     0.312700000000     0.0554556  
C        C      0.449400000000     0.704800000000     0.316300000000     0.0554556  
C        C      0.431400000000     0.639100000000     0.274900000000     0.0554556  
C        C      0.550700000000     0.814200000000     0.355300000000     0.0554556  
C        C      0.180300000000     0.445100000000     0.045700000000     0.0554556  
C        C      0.085800000000     0.473500000000     0.023100000000     0.0554556  
C        C      0.038400000000     0.435100000000     0.968000000000     0.0554556  
C        C      0.047100000000     0.538800000000     0.055300000000     0.0554556  
C        C      0.477200000000     0.959100000000     0.679300000000     0.0554556  
C        C      0.499300000000     0.892400000000     0.729600000000     0.0554556  
C        C      0.584800000000     0.857900000000     0.727400000000     0.0554556  
C        C      0.603200000000     0.791400000000     0.768600000000     0.0554556  
C        C      0.534600000000     0.759800000000     0.812700000000     0.0554556  
C        C      0.449400000000     0.795200000000     0.816300000000     0.0554556  
C        C      0.431400000000     0.860900000000     0.774900000000     0.0554556  
C        C      0.550700000000     0.685800000000     0.855300000000     0.0554556  
C        C      0.180300000000     0.054900000000     0.545700000000     0.0554556  
C        C      0.085800000000     0.026500000000     0.523100000000     0.0554556  
C        C      0.038400000000     0.064900000000     0.468000000000     0.0554556  
C        C      0.047100000000     0.961200000000     0.555300000000     0.0554556  
C        C      0.522800000000     0.459100000000     0.820700000000     0.0554556  
C        C      0.500700000000     0.392400000000     0.770400000000     0.0554556  
C        C      0.415200000000     0.357900000000     0.772600000000     0.0554556  
C        C      0.396800000000     0.291400000000     0.731400000000     0.0554556  
C        C      0.465400000000     0.259800000000     0.687300000000     0.0554556  
C        C      0.550600000000     0.295200000000     0.683700000000     0.0554556  
C        C      0.568600000000     0.360900000000     0.725100000000     0.0554556  
C        C      0.449300000000     0.185800000000     0.644700000000     0.0554556  
C        C      0.819700000000     0.554900000000     0.954300000000     0.0554556  
C        C      0.914200000000     0.526500000000     0.976900000000     0.0554556  
C        C      0.961600000000     0.564900000000     0.032000000000     0.0554556  
C        C      0.952900000000     0.461200000000     0.944700000000     0.0554556  
C        C      0.977200000000     0.959100000000     0.820700000000     0.0554556  
C        C      0.999300000000     0.892400000000     0.770400000000     0.0554556  
C        C      0.084800000000     0.857900000000     0.772600000000     0.0554556  
C        C      0.103200000000     0.791400000000     0.731400000000     0.0554556  
C        C      0.034600000000     0.759800000000     0.687300000000     0.0554556  
C        C      0.949400000000     0.795200000000     0.683700000000     0.0554556  
C        C      0.931400000000     0.860900000000     0.725100000000     0.0554556  
C        C      0.050700000000     0.685800000000     0.644700000000     0.0554556  
C        C      0.680300000000     0.054900000000     0.954300000000     0.0554556  
C        C      0.585800000000     0.026500000000     0.976900000000     0.0554556  
C        C      0.538400000000     0.064900000000     0.032000000000     0.0554556  
C        C      0.547100000000     0.961200000000     0.944700000000     0.0554556  
C        C      0.022800000000     0.459100000000     0.679300000000     0.0554556  
C        C      0.000700000000     0.392400000000     0.729600000000     0.0554556  
C        C      0.915200000000     0.357900000000     0.727400000000     0.0554556  
C        C      0.896800000000     0.291400000000     0.768600000000     0.0554556  
C        C      0.965400000000     0.259800000000     0.812700000000     0.0554556  
C        C      0.050600000000     0.295200000000     0.816300000000     0.0554556  
C        C      0.068600000000     0.360900000000     0.774900000000     0.0554556  
C        C      0.949300000000     0.185800000000     0.855300000000     0.0554556  
C        C      0.319700000000     0.554900000000     0.545700000000     0.0554556  
C        C      0.414200000000     0.526500000000     0.523100000000     0.0554556  
C        C      0.461600000000     0.564900000000     0.468000000000     0.0554556  
C        C      0.452900000000     0.461200000000     0.555300000000     0.0554556  
C        C      0.022800000000     0.040900000000     0.179300000000     0.0554556  
C        C      0.000700000000     0.107600000000     0.229600000000     0.0554556  
C        C      0.915200000000     0.142100000000     0.227400000000     0.0554556  
C        C      0.896800000000     0.208600000000     0.268600000000     0.0554556  
C        C      0.965400000000     0.240200000000     0.312700000000     0.0554556  
C        C      0.050600000000     0.204800000000     0.316300000000     0.0554556  
C        C      0.068600000000     0.139100000000     0.274900000000     0.0554556  
C        C      0.949300000000     0.314200000000     0.355300000000     0.0554556  
C        C      0.319700000000     0.945100000000     0.045700000000     0.0554556  
C        C      0.414200000000     0.973500000000     0.023100000000     0.0554556  
C        C      0.461600000000     0.935100000000     0.968000000000     0.0554556  
C        C      0.452900000000     0.038800000000     0.055300000000     0.0554556  
C        C      0.977200000000     0.540900000000     0.320700000000     0.0554556  
C        C      0.999300000000     0.607600000000     0.270400000000     0.0554556  
C        C      0.084800000000     0.642100000000     0.272600000000     0.0554556  
C        C      0.103200000000     0.708600000000     0.231400000000     0.0554556  
C        C      0.034600000000     0.740200000000     0.187300000000     0.0554556  
C        C      0.949400000000     0.704800000000     0.183700000000     0.0554556  
C        C      0.931400000000     0.639100000000     0.225100000000     0.0554556  
C        C      0.050700000000     0.814200000000     0.144700000000     0.0554556  
C        C      0.680300000000     0.445100000000     0.454300000000     0.0554556  
C        C      0.585800000000     0.473500000000     0.476900000000     0.0554556  
C        C      0.538400000000     0.435100000000     0.532000000000     0.0554556  
C        C      0.547100000000     0.538800000000     0.444700000000     0.0554556  
O        O      0.580700000000     0.960300000000     0.487100000000    -0.301691   
O        O      0.459100000000     0.014300000000     0.359800000000    -0.301691   
O        O      0.604400000000     0.015900000000     0.320000000000    -0.301691   
O        O      0.515600000000     0.342500000000     0.111500000000    -0.301691   
O        O      0.368500000000     0.343100000000     0.147200000000    -0.301691   
O        O      0.781400000000     0.980600000000     0.403300000000    -0.301691   
O        O      0.784800000000     0.889300000000     0.487500000000    -0.301691   
O        O      0.419300000000     0.460300000000     0.012900000000    -0.301691   
O        O      0.540900000000     0.514300000000     0.140200000000    -0.301691   
O        O      0.395600000000     0.515900000000     0.180000000000    -0.301691   
O        O      0.484400000000     0.842500000000     0.388500000000    -0.301691   
O        O      0.631500000000     0.843100000000     0.352800000000    -0.301691   
O        O      0.218600000000     0.480600000000     0.096700000000    -0.301691   
O        O      0.215200000000     0.389300000000     0.012500000000    -0.301691   
O        O      0.419300000000     0.039700000000     0.512900000000    -0.301691   
O        O      0.540900000000     0.985700000000     0.640200000000    -0.301691   
O        O      0.395600000000     0.984100000000     0.680000000000    -0.301691   
O        O      0.484400000000     0.657500000000     0.888500000000    -0.301691   
O        O      0.631500000000     0.656900000000     0.852800000000    -0.301691   
O        O      0.218600000000     0.019400000000     0.596700000000    -0.301691   
O        O      0.215200000000     0.110700000000     0.512500000000    -0.301691   
O        O      0.580700000000     0.539700000000     0.987100000000    -0.301691   
O        O      0.459100000000     0.485700000000     0.859800000000    -0.301691   
O        O      0.604400000000     0.484100000000     0.820000000000    -0.301691   
O        O      0.515600000000     0.157500000000     0.611500000000    -0.301691   
O        O      0.368500000000     0.156900000000     0.647200000000    -0.301691   
O        O      0.781400000000     0.519400000000     0.903300000000    -0.301691   
O        O      0.784800000000     0.610700000000     0.987500000000    -0.301691   
O        O      0.919300000000     0.039700000000     0.987100000000    -0.301691   
O        O      0.040900000000     0.985700000000     0.859800000000    -0.301691   
O        O      0.895600000000     0.984100000000     0.820000000000    -0.301691   
O        O      0.984400000000     0.657500000000     0.611500000000    -0.301691   
O        O      0.131500000000     0.656900000000     0.647200000000    -0.301691   
O        O      0.718600000000     0.019400000000     0.903300000000    -0.301691   
O        O      0.715200000000     0.110700000000     0.987500000000    -0.301691   
O        O      0.080700000000     0.539700000000     0.512900000000    -0.301691   
O        O      0.959100000000     0.485700000000     0.640200000000    -0.301691   
O        O      0.104400000000     0.484100000000     0.680000000000    -0.301691   
O        O      0.015600000000     0.157500000000     0.888500000000    -0.301691   
O        O      0.868500000000     0.156900000000     0.852800000000    -0.301691   
O        O      0.281400000000     0.519400000000     0.596700000000    -0.301691   
O        O      0.284800000000     0.610700000000     0.512500000000    -0.301691   
O        O      0.080700000000     0.960300000000     0.012900000000    -0.301691   
O        O      0.959100000000     0.014300000000     0.140200000000    -0.301691   
O        O      0.104400000000     0.015900000000     0.180000000000    -0.301691   
O        O      0.015600000000     0.342500000000     0.388500000000    -0.301691   
O        O      0.868500000000     0.343100000000     0.352800000000    -0.301691   
O        O      0.281400000000     0.980600000000     0.096700000000    -0.301691   
O        O      0.284800000000     0.889300000000     0.012500000000    -0.301691   
O        O      0.919300000000     0.460300000000     0.487100000000    -0.301691   
O        O      0.040900000000     0.514300000000     0.359800000000    -0.301691   
O        O      0.895600000000     0.515900000000     0.320000000000    -0.301691   
O        O      0.984400000000     0.842500000000     0.111500000000    -0.301691   
O        O      0.131500000000     0.843100000000     0.147200000000    -0.301691   
O        O      0.718600000000     0.480600000000     0.403300000000    -0.301691   
O        O      0.715200000000     0.389300000000     0.487500000000    -0.301691   


