data_AHINIP_original

_audit_creation_method RASPA-1.0
_audit_creation_date 2022-1-31
_audit_author_name 'Felipe Lopes de Oliveira <felipe.lopes.oliveira@ibm.com>'

_cell_length_a    10.592
_cell_length_b    13.12
_cell_length_c    22.306
_cell_angle_alpha 90
_cell_angle_beta  90
_cell_angle_gamma 100.813
_cell_volume      3044.76

_symmetry_cell_setting          triclinic
_symmetry_space_group_name_Hall 'P 1'
_symmetry_space_group_name_H-M  'P 1'
_symmetry_Int_Tables_number     1

_symmetry_equiv_pos_as_xyz 'x,y,z'

loop_
_atom_site_label
_atom_site_type_symbol
_atom_site_fract_x
_atom_site_fract_y
_atom_site_fract_z
_atom_site_charge
Zn       Zn     0.777250000000     0.484480000000     0.138410000000     0.433952   
Zn       Zn     0.304660000000     0.987700000000     0.070780000000     0.433952   
Zn       Zn     0.222750000000     0.515520000000     0.638410000000     0.433952   
Zn       Zn     0.695340000000     0.012300000000     0.570780000000     0.433952   
H        H      0.476000000000     0.705800000000     0.240800000000     0.13059    
H        H      0.358300000000     0.491500000000     0.363000000000     0.13059    
H        H      0.208100000000     0.520600000000     0.430500000000     0.13059    
H        H      0.080100000000     0.618500000000     0.473700000000     0.13059    
H        H      0.977200000000     0.772200000000     0.472300000000     0.13059    
H        H      0.101100000000     0.992400000000     0.349300000000     0.13059    
H        H      0.615600000000     0.623200000000     0.208000000000     0.13059    
H        H      0.465800000000     0.378100000000     0.311800000000     0.13059    
H        H      0.632500000000     0.332000000000     0.250500000000     0.13059    
H        H      0.880400000000     0.894000000000     0.514300000000     0.13059    
H        H      0.921400000000     0.059800000000     0.371100000000     0.13059    
H        H      0.767500000000     0.123400000000     0.438000000000     0.13059    
H        H      0.478700000000     0.160700000000     0.937800000000     0.13059    
H        H      0.397200000000     0.434900000000     0.976400000000     0.13059    
H        H      0.240000000000     0.509600000000     0.912000000000     0.13059    
H        H      0.094600000000     0.484300000000     0.836100000000     0.13059    
H        H      0.991600000000     0.381700000000     0.749700000000     0.13059    
H        H      0.069800000000     0.103300000000     0.720300000000     0.13059    
H        H      0.596700000000     0.468400000000     0.024600000000     0.13059    
H        H      0.542500000000     0.159600000000     0.040000000000     0.13059    
H        H      0.688000000000     0.238700000000     0.120100000000     0.13059    
H        H      0.866100000000     0.065800000000     0.684700000000     0.13059    
H        H      0.937700000000     0.360100000000     0.638300000000     0.13059    
H        H      0.784300000000     0.271300000000     0.568400000000     0.13059    
H        H      0.293700000000     0.259700000000     0.205200000000     0.13059    
H        H      0.296300000000     0.329400000000     0.091200000000     0.13059    
H        H      0.380400000000     0.376000000000     0.146600000000     0.13059    
H        H      0.242300000000     0.481300000000     0.164300000000     0.13059    
H        H      0.155600000000     0.431600000000     0.110700000000     0.13059    
H        H      0.056400000000     0.373300000000     0.278300000000     0.13059    
H        H      0.172500000000     0.459600000000     0.258900000000     0.13059    
H        H      0.192300000000     0.345200000000     0.268100000000     0.13059    
H        H      0.999500000000     0.112200000000     0.209300000000     0.13059    
H        H      0.002800000000     0.203500000000     0.254900000000     0.13059    
H        H      0.122200000000     0.149500000000     0.248600000000     0.13059    
H        H      0.943300000000     0.209600000000     0.131600000000     0.13059    
H        H      0.041600000000     0.136700000000     0.118800000000     0.13059    
H        H      0.063300000000     0.248300000000     0.090900000000     0.13059    
H        H      0.854700000000     0.816600000000     0.090000000000     0.13059    
H        H      0.832300000000     0.763000000000     0.972200000000     0.13059    
H        H      0.913100000000     0.865200000000     0.000300000000     0.13059    
H        H      0.757600000000     0.943400000000     0.958000000000     0.13059    
H        H      0.656500000000     0.838700000000     0.956100000000     0.13059    
H        H      0.711800000000     0.063100000000     0.058500000000     0.13059    
H        H      0.823500000000     0.014800000000     0.031000000000     0.13059    
H        H      0.782600000000     0.992400000000     0.098000000000     0.13059    
H        H      0.682600000000     0.908700000000     0.155500000000     0.13059    
H        H      0.686400000000     0.792400000000     0.169900000000     0.13059    
H        H      0.554800000000     0.826100000000     0.156600000000     0.13059    
H        H      0.574200000000     0.664300000000     0.065300000000     0.13059    
H        H      0.509900000000     0.740300000000     0.026600000000     0.13059    
H        H      0.484400000000     0.731400000000     0.095800000000     0.13059    
H        H      0.524000000000     0.294200000000     0.740800000000     0.13059    
H        H      0.641700000000     0.508500000000     0.863000000000     0.13059    
H        H      0.791900000000     0.479400000000     0.930500000000     0.13059    
H        H      0.919900000000     0.381500000000     0.973700000000     0.13059    
H        H      0.022800000000     0.227800000000     0.972300000000     0.13059    
H        H      0.898900000000     0.007600000000     0.849300000000     0.13059    
H        H      0.384400000000     0.376800000000     0.708000000000     0.13059    
H        H      0.534200000000     0.621900000000     0.811800000000     0.13059    
H        H      0.367500000000     0.668000000000     0.750500000000     0.13059    
H        H      0.119600000000     0.106000000000     0.014300000000     0.13059    
H        H      0.078600000000     0.940200000000     0.871100000000     0.13059    
H        H      0.232500000000     0.876600000000     0.938000000000     0.13059    
H        H      0.521300000000     0.839300000000     0.437800000000     0.13059    
H        H      0.602800000000     0.565100000000     0.476400000000     0.13059    
H        H      0.760000000000     0.490400000000     0.412000000000     0.13059    
H        H      0.905400000000     0.515700000000     0.336100000000     0.13059    
H        H      0.008400000000     0.618300000000     0.249700000000     0.13059    
H        H      0.930200000000     0.896700000000     0.220300000000     0.13059    
H        H      0.403300000000     0.531600000000     0.524600000000     0.13059    
H        H      0.457500000000     0.840400000000     0.540000000000     0.13059    
H        H      0.312000000000     0.761300000000     0.620100000000     0.13059    
H        H      0.133900000000     0.934200000000     0.184700000000     0.13059    
H        H      0.062300000000     0.639900000000     0.138300000000     0.13059    
H        H      0.215700000000     0.728700000000     0.068400000000     0.13059    
H        H      0.706300000000     0.740300000000     0.705200000000     0.13059    
H        H      0.703700000000     0.670600000000     0.591200000000     0.13059    
H        H      0.619600000000     0.624000000000     0.646600000000     0.13059    
H        H      0.757700000000     0.518700000000     0.664300000000     0.13059    
H        H      0.844400000000     0.568400000000     0.610700000000     0.13059    
H        H      0.943600000000     0.626700000000     0.778300000000     0.13059    
H        H      0.827500000000     0.540400000000     0.758900000000     0.13059    
H        H      0.807700000000     0.654800000000     0.768100000000     0.13059    
H        H      0.000500000000     0.887800000000     0.709300000000     0.13059    
H        H      0.997200000000     0.796500000000     0.754900000000     0.13059    
H        H      0.877800000000     0.850500000000     0.748600000000     0.13059    
H        H      0.056700000000     0.790400000000     0.631600000000     0.13059    
H        H      0.958400000000     0.863300000000     0.618800000000     0.13059    
H        H      0.936700000000     0.751700000000     0.590900000000     0.13059    
H        H      0.145300000000     0.183400000000     0.590000000000     0.13059    
H        H      0.167700000000     0.237000000000     0.472200000000     0.13059    
H        H      0.086900000000     0.134800000000     0.500300000000     0.13059    
H        H      0.242400000000     0.056600000000     0.458000000000     0.13059    
H        H      0.343500000000     0.161300000000     0.456100000000     0.13059    
H        H      0.288200000000     0.936900000000     0.558500000000     0.13059    
H        H      0.176500000000     0.985200000000     0.531000000000     0.13059    
H        H      0.217400000000     0.007600000000     0.598000000000     0.13059    
H        H      0.317400000000     0.091300000000     0.655500000000     0.13059    
H        H      0.313600000000     0.207600000000     0.669900000000     0.13059    
H        H      0.445200000000     0.173900000000     0.656600000000     0.13059    
H        H      0.425800000000     0.335700000000     0.565300000000     0.13059    
H        H      0.490100000000     0.259700000000     0.526600000000     0.13059    
H        H      0.515600000000     0.268600000000     0.595800000000     0.13059    
C        C      0.425300000000     0.684500000000     0.274200000000    -0.0591417  
C        C      0.432900000000     0.589200000000     0.298800000000    -0.0591417  
C        C      0.356600000000     0.556200000000     0.346300000000    -0.0591417  
C        C      0.279100000000     0.615200000000     0.369600000000    -0.0591417  
C        C      0.206400000000     0.585500000000     0.414200000000    -0.0591417  
C        C      0.126000000000     0.643600000000     0.439600000000    -0.0591417  
C        C      0.110000000000     0.741500000000     0.415500000000    -0.0591417  
C        C      0.028100000000     0.796300000000     0.439400000000    -0.0591417  
C        C      0.022700000000     0.891200000000     0.412700000000    -0.0591417  
C        C      0.105300000000     0.928200000000     0.366100000000    -0.0591417  
C        C      0.189600000000     0.773300000000     0.370300000000    -0.0591417  
C        C      0.274200000000     0.707900000000     0.344700000000    -0.0591417  
C        C      0.601300000000     0.558000000000     0.225900000000    -0.0591417  
C        C      0.517100000000     0.421000000000     0.284700000000    -0.0591417  
C        C      0.607600000000     0.396300000000     0.249700000000    -0.0591417  
C        C      0.870800000000     0.944600000000     0.486400000000    -0.0591417  
C        C      0.895900000000     0.032800000000     0.408700000000    -0.0591417  
C        C      0.808600000000     0.068100000000     0.445600000000    -0.0591417  
C        C      0.431900000000     0.212100000000     0.929000000000    -0.0591417  
C        C      0.445200000000     0.301400000000     0.964400000000    -0.0591417  
C        C      0.383800000000     0.376100000000     0.952200000000    -0.0591417  
C        C      0.299500000000     0.370600000000     0.904700000000    -0.0591417  
C        C      0.228200000000     0.448200000000     0.890100000000    -0.0591417  
C        C      0.142500000000     0.433300000000     0.844100000000    -0.0591417  
C        C      0.123700000000     0.344000000000     0.808500000000    -0.0591417  
C        C      0.036000000000     0.329500000000     0.760100000000    -0.0591417  
C        C      0.016900000000     0.239600000000     0.729100000000    -0.0591417  
C        C      0.084400000000     0.163800000000     0.743000000000    -0.0591417  
C        C      0.186800000000     0.267100000000     0.820700000000    -0.0591417  
C        C      0.280900000000     0.278300000000     0.870900000000    -0.0591417  
C        C      0.604200000000     0.402100000000     0.037000000000    -0.0591417  
C        C      0.572200000000     0.230200000000     0.045900000000    -0.0591417  
C        C      0.653500000000     0.273900000000     0.089800000000    -0.0591417  
C        C      0.865300000000     0.127100000000     0.664000000000    -0.0591417  
C        C      0.904500000000     0.289300000000     0.638900000000    -0.0591417  
C        C      0.820600000000     0.240800000000     0.600100000000    -0.0591417  
C        C      0.964300000000     0.390300000000     0.180600000000    -0.0591417  
C        C      0.101000000000     0.364700000000     0.190100000000    -0.0591417  
C        C      0.107600000000     0.248900000000     0.178800000000    -0.0591417  
C        C      0.249100000000     0.253300000000     0.166500000000    -0.0591417  
C        C      0.294500000000     0.344200000000     0.133700000000    -0.0591417  
C        C      0.197300000000     0.416300000000     0.147400000000    -0.0591417  
C        C      0.133500000000     0.388000000000     0.254600000000    -0.0591417  
C        C      0.053000000000     0.171400000000     0.227400000000    -0.0591417  
C        C      0.032300000000     0.207200000000     0.125300000000    -0.0591417  
C        C      0.532100000000     0.939200000000     0.034400000000    -0.0591417  
C        C      0.659600000000     0.912400000000     0.039700000000    -0.0591417  
C        C      0.661600000000     0.815600000000     0.075800000000    -0.0591417  
C        C      0.790500000000     0.779500000000     0.062200000000    -0.0591417  
C        C      0.829500000000     0.819900000000     0.999700000000    -0.0591417  
C        C      0.720800000000     0.881900000000     0.980700000000    -0.0591417  
C        C      0.752300000000     0.003500000000     0.058400000000    -0.0591417  
C        C      0.644600000000     0.838000000000     0.146700000000    -0.0591417  
C        C      0.547100000000     0.730100000000     0.064900000000    -0.0591417  
C        C      0.786000000000     0.667900000000     0.071900000000    -0.0591417  
C        C      0.278500000000     0.152700000000     0.134500000000    -0.0591417  
C        C      0.574700000000     0.315500000000     0.774200000000    -0.0591417  
C        C      0.567100000000     0.410800000000     0.798800000000    -0.0591417  
C        C      0.643400000000     0.443800000000     0.846300000000    -0.0591417  
C        C      0.720900000000     0.384800000000     0.869600000000    -0.0591417  
C        C      0.793600000000     0.414500000000     0.914200000000    -0.0591417  
C        C      0.874000000000     0.356400000000     0.939600000000    -0.0591417  
C        C      0.890000000000     0.258500000000     0.915500000000    -0.0591417  
C        C      0.971900000000     0.203700000000     0.939400000000    -0.0591417  
C        C      0.977300000000     0.108800000000     0.912700000000    -0.0591417  
C        C      0.894700000000     0.071800000000     0.866100000000    -0.0591417  
C        C      0.810400000000     0.226700000000     0.870300000000    -0.0591417  
C        C      0.725800000000     0.292100000000     0.844700000000    -0.0591417  
C        C      0.398700000000     0.442000000000     0.725900000000    -0.0591417  
C        C      0.482900000000     0.579000000000     0.784700000000    -0.0591417  
C        C      0.392400000000     0.603700000000     0.749700000000    -0.0591417  
C        C      0.129200000000     0.055400000000     0.986400000000    -0.0591417  
C        C      0.104100000000     0.967200000000     0.908700000000    -0.0591417  
C        C      0.191400000000     0.931900000000     0.945600000000    -0.0591417  
C        C      0.568100000000     0.787900000000     0.429000000000    -0.0591417  
C        C      0.554800000000     0.698600000000     0.464400000000    -0.0591417  
C        C      0.616200000000     0.623900000000     0.452200000000    -0.0591417  
C        C      0.700500000000     0.629400000000     0.404700000000    -0.0591417  
C        C      0.771800000000     0.551800000000     0.390100000000    -0.0591417  
C        C      0.857500000000     0.566700000000     0.344100000000    -0.0591417  
C        C      0.876300000000     0.656000000000     0.308500000000    -0.0591417  
C        C      0.964000000000     0.670500000000     0.260100000000    -0.0591417  
C        C      0.983100000000     0.760400000000     0.229100000000    -0.0591417  
C        C      0.915600000000     0.836200000000     0.243000000000    -0.0591417  
C        C      0.813200000000     0.732900000000     0.320700000000    -0.0591417  
C        C      0.719100000000     0.721700000000     0.370900000000    -0.0591417  
C        C      0.395800000000     0.597900000000     0.537000000000    -0.0591417  
C        C      0.427800000000     0.769800000000     0.545900000000    -0.0591417  
C        C      0.346500000000     0.726100000000     0.589800000000    -0.0591417  
C        C      0.134700000000     0.872900000000     0.164000000000    -0.0591417  
C        C      0.095500000000     0.710700000000     0.138900000000    -0.0591417  
C        C      0.179400000000     0.759200000000     0.100100000000    -0.0591417  
C        C      0.035700000000     0.609700000000     0.680600000000    -0.0591417  
C        C      0.899000000000     0.635300000000     0.690100000000    -0.0591417  
C        C      0.892400000000     0.751100000000     0.678800000000    -0.0591417  
C        C      0.750900000000     0.746700000000     0.666500000000    -0.0591417  
C        C      0.705500000000     0.655800000000     0.633700000000    -0.0591417  
C        C      0.802700000000     0.583700000000     0.647400000000    -0.0591417  
C        C      0.866500000000     0.612000000000     0.754600000000    -0.0591417  
C        C      0.947000000000     0.828600000000     0.727400000000    -0.0591417  
C        C      0.967700000000     0.792800000000     0.625300000000    -0.0591417  
C        C      0.467900000000     0.060800000000     0.534400000000    -0.0591417  
C        C      0.340400000000     0.087600000000     0.539700000000    -0.0591417  
C        C      0.338400000000     0.184400000000     0.575800000000    -0.0591417  
C        C      0.209500000000     0.220500000000     0.562200000000    -0.0591417  
C        C      0.170500000000     0.180100000000     0.499700000000    -0.0591417  
C        C      0.279200000000     0.118100000000     0.480700000000    -0.0591417  
C        C      0.247700000000     0.996500000000     0.558400000000    -0.0591417  
C        C      0.355400000000     0.162000000000     0.646700000000    -0.0591417  
C        C      0.452900000000     0.269900000000     0.564900000000    -0.0591417  
C        C      0.214000000000     0.332100000000     0.571900000000    -0.0591417  
C        C      0.721500000000     0.847300000000     0.634500000000    -0.0591417  
N        N      0.350500000000     0.748400000000     0.294800000000    -0.132592   
N        N      0.193800000000     0.872600000000     0.343800000000    -0.132592   
N        N      0.514400000000     0.523900000000     0.272400000000    -0.132592   
N        N      0.661500000000     0.476500000000     0.211800000000    -0.132592   
N        N      0.938200000000     0.954300000000     0.435000000000    -0.132592   
N        N      0.794100000000     0.005800000000     0.495700000000    -0.132592   
N        N      0.347000000000     0.201100000000     0.880100000000    -0.132592   
N        N      0.173000000000     0.172000000000     0.788800000000    -0.132592   
N        N      0.542200000000     0.309100000000     0.011800000000    -0.132592   
N        N      0.675300000000     0.379300000000     0.081400000000    -0.132592   
N        N      0.936100000000     0.220700000000     0.680400000000    -0.132592   
N        N      0.795100000000     0.132700000000     0.615400000000    -0.132592   
N        N      0.649500000000     0.251600000000     0.794800000000    -0.132592   
N        N      0.806200000000     0.127400000000     0.843800000000    -0.132592   
N        N      0.485600000000     0.476100000000     0.772400000000    -0.132592   
N        N      0.338500000000     0.523500000000     0.711800000000    -0.132592   
N        N      0.061800000000     0.045700000000     0.935000000000    -0.132592   
N        N      0.205900000000     0.994200000000     0.995700000000    -0.132592   
N        N      0.653000000000     0.798900000000     0.380100000000    -0.132592   
N        N      0.827000000000     0.828000000000     0.288800000000    -0.132592   
N        N      0.457800000000     0.690900000000     0.511800000000    -0.132592   
N        N      0.324700000000     0.620700000000     0.581400000000    -0.132592   
N        N      0.063900000000     0.779300000000     0.180400000000    -0.132592   
N        N      0.204900000000     0.867300000000     0.115400000000    -0.132592   
O        O      0.952300000000     0.466700000000     0.152200000000    -0.344444   
O        O      0.868800000000     0.331300000000     0.206900000000    -0.344444   
O        O      0.279500000000     0.133200000000     0.090100000000    -0.344444   
O        O      0.292400000000     0.090600000000     0.184100000000    -0.344444   
O        O      0.483500000000     0.978300000000     0.071700000000    -0.344444   
O        O      0.462700000000     0.905200000000     0.992600000000    -0.344444   
O        O      0.784300000000     0.609100000000     0.029800000000    -0.344444   
O        O      0.780900000000     0.630700000000     0.122700000000    -0.344444   
O        O      0.047700000000     0.533300000000     0.652200000000    -0.344444   
O        O      0.131200000000     0.668700000000     0.706900000000    -0.344444   
O        O      0.720500000000     0.866800000000     0.590100000000    -0.344444   
O        O      0.707600000000     0.909400000000     0.684100000000    -0.344444   
O        O      0.516500000000     0.021700000000     0.571700000000    -0.344444   
O        O      0.537300000000     0.094800000000     0.492600000000    -0.344444   
O        O      0.215700000000     0.390900000000     0.529800000000    -0.344444   
O        O      0.219100000000     0.369300000000     0.622700000000    -0.344444   


