data_AMILUE_original

_audit_creation_method RASPA-1.0
_audit_creation_date 2022-1-31
_audit_author_name 'Felipe Lopes de Oliveira <felipe.lopes.oliveira@ibm.com>'

_cell_length_a    12.34
_cell_length_b    19.9029
_cell_length_c    19.9029
_cell_angle_alpha 102.773
_cell_angle_beta  94.5593
_cell_angle_gamma 94.5593
_cell_volume      4728.39

_symmetry_cell_setting          triclinic
_symmetry_space_group_name_Hall 'P 1'
_symmetry_space_group_name_H-M  'P 1'
_symmetry_Int_Tables_number     1

_symmetry_equiv_pos_as_xyz 'x,y,z'

loop_
_atom_site_label
_atom_site_type_symbol
_atom_site_fract_x
_atom_site_fract_y
_atom_site_fract_z
_atom_site_charge
Zn       Zn     0.611900000000     0.076390000000     0.565100000000     0.446027   
Zn       Zn     0.808800000000     0.016870000000     0.526320000000     0.446027   
Zn       Zn     0.410500000000     0.339780000000     0.608170000000     0.446027   
Zn       Zn     0.500060000000     0.487280000000     0.748760000000     0.446027   
Zn       Zn     0.111900000000     0.565100000000     0.076390000000     0.446027   
Zn       Zn     0.308800000000     0.526320000000     0.016870000000     0.446027   
Zn       Zn     0.910500000000     0.608170000000     0.339780000000     0.446027   
Zn       Zn     0.000060000000     0.748760000000     0.487280000000     0.446027   
H        H      0.493800000000     0.200200000000     0.541800000000     0.0525695  
H        H      0.553300000000     0.220800000000     0.619000000000     0.0525695  
H        H      0.526900000000     0.143300000000     0.697500000000     0.0525695  
H        H      0.451600000000     0.071400000000     0.671000000000     0.0525695  
H        H      0.362200000000     0.040200000000     0.552000000000     0.0525695  
H        H      0.378200000000     0.092500000000     0.501900000000     0.0525695  
H        H      0.319900000000     0.251800000000     0.705800000000     0.0525695  
H        H      0.449600000000     0.250100000000     0.717300000000     0.0525695  
H        H      0.203800000000     0.142200000000     0.662800000000     0.0525695  
H        H      0.258600000000     0.070900000000     0.648300000000     0.0525695  
H        H      0.296500000000     0.199200000000     0.522400000000     0.0525695  
H        H      0.227000000000     0.220500000000     0.587100000000     0.0525695  
H        H      0.864900000000     0.872700000000     0.472100000000     0.0525695  
H        H      0.917000000000     0.890800000000     0.551000000000     0.0525695  
H        H      0.984800000000     0.022900000000     0.429100000000     0.0525695  
H        H      0.906900000000     0.952900000000     0.397900000000     0.0525695  
H        H      0.035000000000     0.998400000000     0.598000000000     0.0525695  
H        H      0.062100000000     0.050300000000     0.549100000000     0.0525695  
H        H      0.982800000000     0.844000000000     0.378600000000     0.0525695  
H        H      0.111000000000     0.842000000000     0.397000000000     0.0525695  
H        H      0.176700000000     0.019700000000     0.459300000000     0.0525695  
H        H      0.226900000000     0.946700000000     0.447300000000     0.0525695  
H        H      0.188100000000     0.869200000000     0.519800000000     0.0525695  
H        H      0.108600000000     0.888900000000     0.579500000000     0.0525695  
H        H      0.658700000000     0.859900000000     0.343900000000     0.0525695  
H        H      0.278800000000     0.862600000000     0.323000000000     0.0525695  
H        H      0.389500000000     0.946800000000     0.404600000000     0.0525695  
H        H      0.640400000000     0.755100000000     0.246300000000     0.0525695  
H        H      0.533600000000     0.673700000000     0.162300000000     0.0525695  
H        H      0.260900000000     0.755000000000     0.229000000000     0.0525695  
H        H      0.925600000000     0.159800000000     0.406000000000     0.0525695  
H        H      0.971400000000     0.250600000000     0.354400000000     0.0525695  
H        H      0.650800000000     0.244500000000     0.464100000000     0.0525695  
H        H      0.932700000000     0.360600000000     0.324800000000     0.0525695  
H        H      0.672200000000     0.453900000000     0.396100000000     0.0525695  
H        H      0.618500000000     0.360800000000     0.441600000000     0.0525695  
H        H      0.118900000000     0.341000000000     0.632600000000     0.0525695  
H        H      0.977600000000     0.509000000000     0.799800000000     0.0525695  
H        H      0.164200000000     0.503900000000     0.798700000000     0.0525695  
H        H      0.928000000000     0.294000000000     0.582200000000     0.0525695  
H        H      0.741700000000     0.297600000000     0.582600000000     0.0525695  
H        H      0.788500000000     0.458400000000     0.751200000000     0.0525695  
H        H      0.776800000000     0.850600000000     0.629200000000     0.0525695  
H        H      0.441400000000     0.829200000000     0.721400000000     0.0525695  
H        H      0.487300000000     0.923500000000     0.675700000000     0.0525695  
H        H      0.818300000000     0.737500000000     0.651300000000     0.0525695  
H        H      0.770200000000     0.641800000000     0.694600000000     0.0525695  
H        H      0.484300000000     0.714000000000     0.743400000000     0.0525695  
H        H      0.993800000000     0.541800000000     0.200200000000     0.0525695  
H        H      0.053300000000     0.619000000000     0.220800000000     0.0525695  
H        H      0.026900000000     0.697500000000     0.143300000000     0.0525695  
H        H      0.951600000000     0.671000000000     0.071400000000     0.0525695  
H        H      0.862200000000     0.552000000000     0.040200000000     0.0525695  
H        H      0.878200000000     0.501900000000     0.092500000000     0.0525695  
H        H      0.819900000000     0.705800000000     0.251800000000     0.0525695  
H        H      0.949600000000     0.717300000000     0.250100000000     0.0525695  
H        H      0.703800000000     0.662800000000     0.142200000000     0.0525695  
H        H      0.758600000000     0.648300000000     0.070900000000     0.0525695  
H        H      0.796500000000     0.522400000000     0.199200000000     0.0525695  
H        H      0.727000000000     0.587100000000     0.220500000000     0.0525695  
H        H      0.364900000000     0.472100000000     0.872700000000     0.0525695  
H        H      0.417000000000     0.551000000000     0.890800000000     0.0525695  
H        H      0.484800000000     0.429100000000     0.022900000000     0.0525695  
H        H      0.406900000000     0.397900000000     0.952900000000     0.0525695  
H        H      0.535000000000     0.598000000000     0.998400000000     0.0525695  
H        H      0.562100000000     0.549100000000     0.050300000000     0.0525695  
H        H      0.482800000000     0.378600000000     0.844000000000     0.0525695  
H        H      0.611000000000     0.397000000000     0.842000000000     0.0525695  
H        H      0.676700000000     0.459300000000     0.019700000000     0.0525695  
H        H      0.726900000000     0.447300000000     0.946700000000     0.0525695  
H        H      0.688100000000     0.519800000000     0.869200000000     0.0525695  
H        H      0.608600000000     0.579500000000     0.888900000000     0.0525695  
H        H      0.158700000000     0.343900000000     0.859900000000     0.0525695  
H        H      0.778800000000     0.323000000000     0.862600000000     0.0525695  
H        H      0.889500000000     0.404600000000     0.946800000000     0.0525695  
H        H      0.140400000000     0.246300000000     0.755100000000     0.0525695  
H        H      0.033600000000     0.162300000000     0.673700000000     0.0525695  
H        H      0.760900000000     0.229000000000     0.755000000000     0.0525695  
H        H      0.425600000000     0.406000000000     0.159800000000     0.0525695  
H        H      0.471400000000     0.354400000000     0.250600000000     0.0525695  
H        H      0.150800000000     0.464100000000     0.244500000000     0.0525695  
H        H      0.432700000000     0.324800000000     0.360600000000     0.0525695  
H        H      0.172200000000     0.396100000000     0.453900000000     0.0525695  
H        H      0.118500000000     0.441600000000     0.360800000000     0.0525695  
H        H      0.618900000000     0.632600000000     0.341000000000     0.0525695  
H        H      0.477600000000     0.799800000000     0.509000000000     0.0525695  
H        H      0.664200000000     0.798700000000     0.503900000000     0.0525695  
H        H      0.428000000000     0.582200000000     0.294000000000     0.0525695  
H        H      0.241700000000     0.582600000000     0.297600000000     0.0525695  
H        H      0.288500000000     0.751200000000     0.458400000000     0.0525695  
H        H      0.276800000000     0.629200000000     0.850600000000     0.0525695  
H        H      0.941400000000     0.721400000000     0.829200000000     0.0525695  
H        H      0.987300000000     0.675700000000     0.923500000000     0.0525695  
H        H      0.318300000000     0.651300000000     0.737500000000     0.0525695  
H        H      0.270200000000     0.694600000000     0.641800000000     0.0525695  
H        H      0.984300000000     0.743400000000     0.714000000000     0.0525695  
C        C      0.486000000000     0.197370000000     0.590190000000     0.0222211  
C        C      0.460300000000     0.120380000000     0.667540000000     0.0222211  
C        C      0.372000000000     0.089750000000     0.550530000000     0.0222211  
C        C      0.382300000000     0.227520000000     0.687960000000     0.0222211  
C        C      0.268700000000     0.120120000000     0.646080000000     0.0222211  
C        C      0.291100000000     0.196920000000     0.571180000000     0.0222211  
C        C      0.930500000000     0.894680000000     0.503620000000     0.0222211  
C        C      0.971500000000     0.973620000000     0.430760000000     0.0222211  
C        C      0.048200000000     0.000850000000     0.550090000000     0.0222211  
C        C      0.046600000000     0.865960000000     0.411660000000     0.0222211  
C        C      0.161600000000     0.970500000000     0.460700000000     0.0222211  
C        C      0.122300000000     0.892810000000     0.532130000000     0.0222211  
C        C      0.603700000000     0.960150000000     0.440090000000     0.0222211  
C        C      0.535400000000     0.907960000000     0.382700000000     0.0222211  
C        C      0.581500000000     0.859840000000     0.339660000000     0.0222211  
C        C      0.517100000000     0.808010000000     0.287230000000     0.0222211  
C        C      0.403000000000     0.808420000000     0.281420000000     0.0222211  
C        C      0.355800000000     0.861310000000     0.326610000000     0.0222211  
C        C      0.421200000000     0.910700000000     0.375500000000     0.0222211  
C        C      0.563400000000     0.756320000000     0.242320000000     0.0222211  
C        C      0.499900000000     0.707680000000     0.192880000000     0.0222211  
C        C      0.385000000000     0.706610000000     0.186030000000     0.0222211  
C        C      0.338200000000     0.756120000000     0.231400000000     0.0222211  
C        C      0.317900000000     0.650120000000     0.133700000000     0.0222211  
C        C      0.753800000000     0.136290000000     0.474810000000     0.0222211  
C        C      0.782300000000     0.194800000000     0.439860000000     0.0222211  
C        C      0.879400000000     0.196020000000     0.407180000000     0.0222211  
C        C      0.906600000000     0.250060000000     0.377140000000     0.0222211  
C        C      0.840400000000     0.304880000000     0.379520000000     0.0222211  
C        C      0.744100000000     0.303220000000     0.412300000000     0.0222211  
C        C      0.716300000000     0.246320000000     0.442260000000     0.0222211  
C        C      0.870600000000     0.361170000000     0.350030000000     0.0222211  
C        C      0.810200000000     0.416490000000     0.358110000000     0.0222211  
C        C      0.714900000000     0.415770000000     0.391810000000     0.0222211  
C        C      0.683000000000     0.360510000000     0.418490000000     0.0222211  
C        C      0.852100000000     0.479910000000     0.333090000000     0.0222211  
C        C      0.279300000000     0.418560000000     0.715160000000     0.0222211  
C        C      0.157700000000     0.420860000000     0.714620000000     0.0222211  
C        C      0.089500000000     0.374580000000     0.666040000000     0.0222211  
C        C      0.974000000000     0.376110000000     0.664950000000     0.0222211  
C        C      0.931300000000     0.425860000000     0.716880000000     0.0222211  
C        C      0.005000000000     0.474550000000     0.766270000000     0.0222211  
C        C      0.115400000000     0.471660000000     0.765300000000     0.0222211  
C        C      0.900200000000     0.327960000000     0.616180000000     0.0222211  
C        C      0.789900000000     0.329110000000     0.616910000000     0.0222211  
C        C      0.747600000000     0.377770000000     0.669210000000     0.0222211  
C        C      0.817700000000     0.425280000000     0.717200000000     0.0222211  
C        C      0.627600000000     0.377970000000     0.670510000000     0.0222211  
C        C      0.664800000000     0.955690000000     0.615430000000     0.0222211  
C        C      0.637000000000     0.895830000000     0.646470000000     0.0222211  
C        C      0.708000000000     0.845620000000     0.646860000000     0.0222211  
C        C      0.679800000000     0.787110000000     0.673090000000     0.0222211  
C        C      0.579200000000     0.780150000000     0.700250000000     0.0222211  
C        C      0.508700000000     0.832720000000     0.701680000000     0.0222211  
C        C      0.536300000000     0.888840000000     0.674960000000     0.0222211  
C        C      0.750700000000     0.733710000000     0.670630000000     0.0222211  
C        C      0.722000000000     0.676910000000     0.696090000000     0.0222211  
C        C      0.622400000000     0.670000000000     0.724480000000     0.0222211  
C        C      0.552600000000     0.719610000000     0.725390000000     0.0222211  
C        C      0.586900000000     0.605100000000     0.745300000000     0.0222211  
C        C      0.986000000000     0.590190000000     0.197370000000     0.0222211  
C        C      0.960300000000     0.667540000000     0.120380000000     0.0222211  
C        C      0.872000000000     0.550530000000     0.089750000000     0.0222211  
C        C      0.882300000000     0.687960000000     0.227520000000     0.0222211  
C        C      0.768700000000     0.646080000000     0.120120000000     0.0222211  
C        C      0.791100000000     0.571180000000     0.196920000000     0.0222211  
C        C      0.430500000000     0.503620000000     0.894680000000     0.0222211  
C        C      0.471500000000     0.430760000000     0.973620000000     0.0222211  
C        C      0.548200000000     0.550090000000     0.000850000000     0.0222211  
C        C      0.546600000000     0.411660000000     0.865960000000     0.0222211  
C        C      0.661600000000     0.460700000000     0.970500000000     0.0222211  
C        C      0.622300000000     0.532130000000     0.892810000000     0.0222211  
C        C      0.103700000000     0.440090000000     0.960150000000     0.0222211  
C        C      0.035400000000     0.382700000000     0.907960000000     0.0222211  
C        C      0.081500000000     0.339660000000     0.859840000000     0.0222211  
C        C      0.017100000000     0.287230000000     0.808010000000     0.0222211  
C        C      0.903000000000     0.281420000000     0.808420000000     0.0222211  
C        C      0.855800000000     0.326610000000     0.861310000000     0.0222211  
C        C      0.921200000000     0.375500000000     0.910700000000     0.0222211  
C        C      0.063400000000     0.242320000000     0.756320000000     0.0222211  
C        C      0.999900000000     0.192880000000     0.707680000000     0.0222211  
C        C      0.885000000000     0.186030000000     0.706610000000     0.0222211  
C        C      0.838200000000     0.231400000000     0.756120000000     0.0222211  
C        C      0.817900000000     0.133700000000     0.650120000000     0.0222211  
C        C      0.253800000000     0.474810000000     0.136290000000     0.0222211  
C        C      0.282300000000     0.439860000000     0.194800000000     0.0222211  
C        C      0.379400000000     0.407180000000     0.196020000000     0.0222211  
C        C      0.406600000000     0.377140000000     0.250060000000     0.0222211  
C        C      0.340400000000     0.379520000000     0.304880000000     0.0222211  
C        C      0.244100000000     0.412300000000     0.303220000000     0.0222211  
C        C      0.216300000000     0.442260000000     0.246320000000     0.0222211  
C        C      0.370600000000     0.350030000000     0.361170000000     0.0222211  
C        C      0.310200000000     0.358110000000     0.416490000000     0.0222211  
C        C      0.214900000000     0.391810000000     0.415770000000     0.0222211  
C        C      0.183000000000     0.418490000000     0.360510000000     0.0222211  
C        C      0.352100000000     0.333090000000     0.479910000000     0.0222211  
C        C      0.779300000000     0.715160000000     0.418560000000     0.0222211  
C        C      0.657700000000     0.714620000000     0.420860000000     0.0222211  
C        C      0.589500000000     0.666040000000     0.374580000000     0.0222211  
C        C      0.474000000000     0.664950000000     0.376110000000     0.0222211  
C        C      0.431300000000     0.716880000000     0.425860000000     0.0222211  
C        C      0.505000000000     0.766270000000     0.474550000000     0.0222211  
C        C      0.615400000000     0.765300000000     0.471660000000     0.0222211  
C        C      0.400200000000     0.616180000000     0.327960000000     0.0222211  
C        C      0.289900000000     0.616910000000     0.329110000000     0.0222211  
C        C      0.247600000000     0.669210000000     0.377770000000     0.0222211  
C        C      0.317700000000     0.717200000000     0.425280000000     0.0222211  
C        C      0.127600000000     0.670510000000     0.377970000000     0.0222211  
C        C      0.164800000000     0.615430000000     0.955690000000     0.0222211  
C        C      0.137000000000     0.646470000000     0.895830000000     0.0222211  
C        C      0.208000000000     0.646860000000     0.845620000000     0.0222211  
C        C      0.179800000000     0.673090000000     0.787110000000     0.0222211  
C        C      0.079200000000     0.700250000000     0.780150000000     0.0222211  
C        C      0.008700000000     0.701680000000     0.832720000000     0.0222211  
C        C      0.036300000000     0.674960000000     0.888840000000     0.0222211  
C        C      0.250700000000     0.670630000000     0.733710000000     0.0222211  
C        C      0.222000000000     0.696090000000     0.676910000000     0.0222211  
C        C      0.122400000000     0.724480000000     0.670000000000     0.0222211  
C        C      0.052600000000     0.725390000000     0.719610000000     0.0222211  
C        C      0.086900000000     0.745300000000     0.605100000000     0.0222211  
N        N      0.473600000000     0.123470000000     0.594130000000    -0.115403   
N        N      0.391500000000     0.233040000000     0.614260000000    -0.115403   
N        N      0.366200000000     0.154050000000     0.691750000000    -0.115403   
N        N      0.276000000000     0.124160000000     0.575660000000    -0.115403   
N        N      0.948000000000     0.969290000000     0.501910000000    -0.115403   
N        N      0.026200000000     0.857350000000     0.482470000000    -0.115403   
N        N      0.065600000000     0.938260000000     0.409420000000    -0.115403   
N        N      0.143000000000     0.966170000000     0.531350000000    -0.115403   
N        N      0.973600000000     0.594130000000     0.123470000000    -0.115403   
N        N      0.891500000000     0.614260000000     0.233040000000    -0.115403   
N        N      0.866200000000     0.691750000000     0.154050000000    -0.115403   
N        N      0.776000000000     0.575660000000     0.124160000000    -0.115403   
N        N      0.448000000000     0.501910000000     0.969290000000    -0.115403   
N        N      0.526200000000     0.482470000000     0.857350000000    -0.115403   
N        N      0.565600000000     0.409420000000     0.938260000000    -0.115403   
N        N      0.643000000000     0.531350000000     0.966170000000    -0.115403   
O        O      0.552800000000     0.005290000000     0.477190000000    -0.294843   
O        O      0.704700000000     0.954900000000     0.448460000000    -0.294843   
O        O      0.368100000000     0.610520000000     0.093320000000    -0.294843   
O        O      0.215600000000     0.646570000000     0.135010000000    -0.294843   
O        O      0.670400000000     0.139260000000     0.506520000000    -0.294843   
O        O      0.817700000000     0.088940000000     0.469760000000    -0.294843   
O        O      0.924900000000     0.474470000000     0.291930000000    -0.294843   
O        O      0.813100000000     0.533930000000     0.356550000000    -0.294843   
O        O      0.595900000000     0.998250000000     0.615250000000    -0.294843   
O        O      0.338530000000     0.470980000000     0.748300000000    -0.294843   
O        O      0.314330000000     0.363960000000     0.683260000000    -0.294843   
O        O      0.569590000000     0.345470000000     0.615810000000    -0.294843   
O        O      0.589900000000     0.407430000000     0.725510000000    -0.294843   
O        O      0.754100000000     0.957290000000     0.589590000000    -0.294843   
O        O      0.649100000000     0.556800000000     0.739100000000    -0.294843   
O        O      0.494400000000     0.595630000000     0.763690000000    -0.294843   
O        O      0.052800000000     0.477190000000     0.005290000000    -0.294843   
O        O      0.204700000000     0.448460000000     0.954900000000    -0.294843   
O        O      0.868100000000     0.093320000000     0.610520000000    -0.294843   
O        O      0.715600000000     0.135010000000     0.646570000000    -0.294843   
O        O      0.170400000000     0.506520000000     0.139260000000    -0.294843   
O        O      0.317700000000     0.469760000000     0.088940000000    -0.294843   
O        O      0.424900000000     0.291930000000     0.474470000000    -0.294843   
O        O      0.313100000000     0.356550000000     0.533930000000    -0.294843   
O        O      0.095900000000     0.615250000000     0.998250000000    -0.294843   
O        O      0.838530000000     0.748300000000     0.470980000000    -0.294843   
O        O      0.814330000000     0.683260000000     0.363960000000    -0.294843   
O        O      0.069590000000     0.615810000000     0.345470000000    -0.294843   
O        O      0.089900000000     0.725510000000     0.407430000000    -0.294843   
O        O      0.254100000000     0.589590000000     0.957290000000    -0.294843   
O        O      0.149100000000     0.739100000000     0.556800000000    -0.294843   
O        O      0.994400000000     0.763690000000     0.595630000000    -0.294843   


