data_AMIMEP_original

_audit_creation_method RASPA-1.0
_audit_creation_date 2022-1-29
_audit_author_name 'Felipe Lopes de Oliveira <felipe.lopes.oliveira@ibm.com>'

_cell_length_a    12.2751
_cell_length_b    19.9288
_cell_length_c    19.9288
_cell_angle_alpha 103.536
_cell_angle_beta  93.8976
_cell_angle_gamma 93.8976
_cell_volume      4711.05

_symmetry_cell_setting          triclinic
_symmetry_space_group_name_Hall 'P 1'
_symmetry_space_group_name_H-M  'P 1'
_symmetry_Int_Tables_number     1

_symmetry_equiv_pos_as_xyz 'x,y,z'

loop_
_atom_site_label
_atom_site_type_symbol
_atom_site_fract_x
_atom_site_fract_y
_atom_site_fract_z
_atom_site_charge
Zn       Zn     0.813240000000     0.606090000000     0.116380000000     0.445513   
Zn       Zn     0.613800000000     0.667220000000     0.155660000000     0.445513   
Zn       Zn     0.929310000000     0.198620000000     0.936060000000     0.445513   
Zn       Zn     0.018090000000     0.340340000000     0.085450000000     0.445513   
Zn       Zn     0.313240000000     0.116380000000     0.606090000000     0.445513   
Zn       Zn     0.113800000000     0.155660000000     0.667220000000     0.445513   
Zn       Zn     0.429310000000     0.936060000000     0.198620000000     0.445513   
Zn       Zn     0.518090000000     0.085450000000     0.340340000000     0.445513   
H        H      0.505300000000     0.731300000000     0.282900000000     0.0526208  
H        H      0.428600000000     0.661900000000     0.248100000000     0.0526208  
H        H      0.301700000000     0.845000000000     0.280400000000     0.0526208  
H        H      0.428500000000     0.841700000000     0.303100000000     0.0526208  
H        H      0.322700000000     0.801000000000     0.099800000000     0.0526208  
H        H      0.237900000000     0.821600000000     0.157200000000     0.0526208  
H        H      0.188300000000     0.741700000000     0.226900000000     0.0526208  
H        H      0.238300000000     0.668100000000     0.213900000000     0.0526208  
H        H      0.361100000000     0.637800000000     0.125800000000     0.0526208  
H        H      0.394300000000     0.691000000000     0.080200000000     0.0526208  
H        H      0.512500000000     0.796600000000     0.132600000000     0.0526208  
H        H      0.557500000000     0.812600000000     0.212600000000     0.0526208  
H        H      0.057000000000     0.594400000000     0.173600000000     0.0526208  
H        H      0.066300000000     0.640100000000     0.117700000000     0.0526208  
H        H      0.871000000000     0.460800000000     0.071400000000     0.0526208  
H        H      0.938900000000     0.486400000000     0.145600000000     0.0526208  
H        H      0.963100000000     0.600800000000     0.003600000000     0.0526208  
H        H      0.886500000000     0.529600000000     0.985200000000     0.0526208  
H        H      0.200000000000     0.458500000000     0.087500000000     0.0526208  
H        H      0.137900000000     0.485300000000     0.155500000000     0.0526208  
H        H      0.158600000000     0.599000000000     0.015400000000     0.0526208  
H        H      0.211300000000     0.526200000000     0.003400000000     0.0526208  
H        H      0.964400000000     0.421900000000     0.967500000000     0.0526208  
H        H      0.094800000000     0.419700000000     0.973300000000     0.0526208  
H        H      0.658300000000     0.836000000000     0.055600000000     0.0526208  
H        H      0.633800000000     0.954800000000     0.038600000000     0.0526208  
H        H      0.700600000000     0.050300000000     0.003300000000     0.0526208  
H        H      0.955600000000     0.950400000000     0.924400000000     0.0526208  
H        H      0.979900000000     0.830200000000     0.941000000000     0.0526208  
H        H      0.923500000000     0.739700000000     0.987700000000     0.0526208  
H        H      0.792400000000     0.451400000000     0.227400000000     0.0526208  
H        H      0.453300000000     0.420500000000     0.314900000000     0.0526208  
H        H      0.493200000000     0.515200000000     0.271400000000     0.0526208  
H        H      0.847300000000     0.342900000000     0.253100000000     0.0526208  
H        H      0.807600000000     0.246500000000     0.295300000000     0.0526208  
H        H      0.508600000000     0.307600000000     0.340800000000     0.0526208  
H        H      0.764600000000     0.833200000000     0.331800000000     0.0526208  
H        H      0.781900000000     0.939400000000     0.429600000000     0.0526208  
H        H      0.163000000000     0.927700000000     0.452500000000     0.0526208  
H        H      0.143700000000     0.816700000000     0.360300000000     0.0526208  
H        H      0.034400000000     0.735700000000     0.275900000000     0.0526208  
H        H      0.890400000000     0.018300000000     0.514700000000     0.0526208  
H        H      0.678200000000     0.386300000000     0.106500000000     0.0526208  
H        H      0.490700000000     0.388000000000     0.107600000000     0.0526208  
H        H      0.303300000000     0.339500000000     0.055900000000     0.0526208  
H        H      0.642000000000     0.225400000000     0.937200000000     0.0526208  
H        H      0.453300000000     0.172800000000     0.888400000000     0.0526208  
H        H      0.266500000000     0.174200000000     0.890200000000     0.0526208  
H        H      0.005300000000     0.282900000000     0.731300000000     0.0526208  
H        H      0.928600000000     0.248100000000     0.661900000000     0.0526208  
H        H      0.801700000000     0.280400000000     0.845000000000     0.0526208  
H        H      0.928500000000     0.303100000000     0.841700000000     0.0526208  
H        H      0.822700000000     0.099800000000     0.801000000000     0.0526208  
H        H      0.737900000000     0.157200000000     0.821600000000     0.0526208  
H        H      0.688300000000     0.226900000000     0.741700000000     0.0526208  
H        H      0.738300000000     0.213900000000     0.668100000000     0.0526208  
H        H      0.861100000000     0.125800000000     0.637800000000     0.0526208  
H        H      0.894300000000     0.080200000000     0.691000000000     0.0526208  
H        H      0.012500000000     0.132600000000     0.796600000000     0.0526208  
H        H      0.057500000000     0.212600000000     0.812600000000     0.0526208  
H        H      0.557000000000     0.173600000000     0.594400000000     0.0526208  
H        H      0.566300000000     0.117700000000     0.640100000000     0.0526208  
H        H      0.371000000000     0.071400000000     0.460800000000     0.0526208  
H        H      0.438900000000     0.145600000000     0.486400000000     0.0526208  
H        H      0.463100000000     0.003600000000     0.600800000000     0.0526208  
H        H      0.386500000000     0.985200000000     0.529600000000     0.0526208  
H        H      0.700000000000     0.087500000000     0.458500000000     0.0526208  
H        H      0.637900000000     0.155500000000     0.485300000000     0.0526208  
H        H      0.658600000000     0.015400000000     0.599000000000     0.0526208  
H        H      0.711300000000     0.003400000000     0.526200000000     0.0526208  
H        H      0.464400000000     0.967500000000     0.421900000000     0.0526208  
H        H      0.594800000000     0.973300000000     0.419700000000     0.0526208  
H        H      0.158300000000     0.055600000000     0.836000000000     0.0526208  
H        H      0.133800000000     0.038600000000     0.954800000000     0.0526208  
H        H      0.200600000000     0.003300000000     0.050300000000     0.0526208  
H        H      0.455600000000     0.924400000000     0.950400000000     0.0526208  
H        H      0.479900000000     0.941000000000     0.830200000000     0.0526208  
H        H      0.423500000000     0.987700000000     0.739700000000     0.0526208  
H        H      0.292400000000     0.227400000000     0.451400000000     0.0526208  
H        H      0.953300000000     0.314900000000     0.420500000000     0.0526208  
H        H      0.993200000000     0.271400000000     0.515200000000     0.0526208  
H        H      0.347300000000     0.253100000000     0.342900000000     0.0526208  
H        H      0.307600000000     0.295300000000     0.246500000000     0.0526208  
H        H      0.008600000000     0.340800000000     0.307600000000     0.0526208  
H        H      0.264600000000     0.331800000000     0.833200000000     0.0526208  
H        H      0.281900000000     0.429600000000     0.939400000000     0.0526208  
H        H      0.663000000000     0.452500000000     0.927700000000     0.0526208  
H        H      0.643700000000     0.360300000000     0.816700000000     0.0526208  
H        H      0.534400000000     0.275900000000     0.735700000000     0.0526208  
H        H      0.390400000000     0.514700000000     0.018300000000     0.0526208  
H        H      0.178200000000     0.106500000000     0.386300000000     0.0526208  
H        H      0.990700000000     0.107600000000     0.388000000000     0.0526208  
H        H      0.803300000000     0.055900000000     0.339500000000     0.0526208  
H        H      0.142000000000     0.937200000000     0.225400000000     0.0526208  
H        H      0.953300000000     0.888400000000     0.172800000000     0.0526208  
H        H      0.766500000000     0.890200000000     0.174200000000     0.0526208  
C        C      0.443100000000     0.711350000000     0.248070000000     0.0218915  
C        C      0.367600000000     0.820550000000     0.267670000000     0.0218915  
C        C      0.304000000000     0.796730000000     0.146210000000     0.0218915  
C        C      0.254600000000     0.717550000000     0.214410000000     0.0218915  
C        C      0.376500000000     0.687430000000     0.126990000000     0.0218915  
C        C      0.494100000000     0.791870000000     0.178970000000     0.0218915  
C        C      0.057500000000     0.592110000000     0.123450000000     0.0218915  
C        C      0.940900000000     0.484930000000     0.095690000000     0.0218915  
C        C      0.955900000000     0.553260000000     0.010740000000     0.0218915  
C        C      0.137300000000     0.483710000000     0.105470000000     0.0218915  
C        C      0.148800000000     0.551250000000     0.022070000000     0.0218915  
C        C      0.033700000000     0.445690000000     0.992870000000     0.0218915  
C        C      0.753800000000     0.722530000000     0.060230000000     0.0218915  
C        C      0.785600000000     0.779880000000     0.026540000000     0.0218915  
C        C      0.724300000000     0.835860000000     0.033300000000     0.0218915  
C        C      0.758800000000     0.893700000000     0.007160000000     0.0218915  
C        C      0.700300000000     0.953740000000     0.016720000000     0.0218915  
C        C      0.739000000000     0.009760000000     0.994840000000     0.0218915  
C        C      0.891500000000     0.951070000000     0.948590000000     0.0218915  
C        C      0.915600000000     0.832570000000     0.965050000000     0.0218915  
C        C      0.881600000000     0.778610000000     0.992210000000     0.0218915  
C        C      0.835200000000     0.008650000000     0.959850000000     0.0218915  
C        C      0.878500000000     0.071630000000     0.937490000000     0.0218915  
C        C      0.856100000000     0.891900000000     0.972320000000     0.0218915  
C        C      0.670200000000     0.551960000000     0.211800000000     0.0218915  
C        C      0.647600000000     0.492820000000     0.244840000000     0.0218915  
C        C      0.723800000000     0.444760000000     0.245420000000     0.0218915  
C        C      0.701700000000     0.386310000000     0.272070000000     0.0218915  
C        C      0.599700000000     0.376380000000     0.298980000000     0.0218915  
C        C      0.522500000000     0.426370000000     0.297430000000     0.0218915  
C        C      0.546000000000     0.482470000000     0.271590000000     0.0218915  
C        C      0.778600000000     0.336500000000     0.271020000000     0.0218915  
C        C      0.754900000000     0.279260000000     0.295580000000     0.0218915  
C        C      0.577100000000     0.315570000000     0.323190000000     0.0218915  
C        C      0.653400000000     0.268530000000     0.321270000000     0.0218915  
C        C      0.625400000000     0.201780000000     0.343040000000     0.0218915  
C        C      0.820600000000     0.726090000000     0.237450000000     0.0218915  
C        C      0.888600000000     0.777650000000     0.295330000000     0.0218915  
C        C      0.841500000000     0.830390000000     0.337590000000     0.0218915  
C        C      0.906100000000     0.880520000000     0.389640000000     0.0218915  
C        C      0.858600000000     0.935790000000     0.434470000000     0.0218915  
C        C      0.085700000000     0.929050000000     0.447990000000     0.0218915  
C        C      0.020700000000     0.876900000000     0.397100000000     0.0218915  
C        C      0.067200000000     0.821020000000     0.354460000000     0.0218915  
C        C      0.002200000000     0.772790000000     0.304530000000     0.0218915  
C        C      0.038300000000     0.981000000000     0.490560000000     0.0218915  
C        C      0.106500000000     0.034790000000     0.543950000000     0.0218915  
C        C      0.923200000000     0.983070000000     0.483950000000     0.0218915  
C        C      0.677100000000     0.305810000000     0.020070000000     0.0218915  
C        C      0.798400000000     0.306050000000     0.020150000000     0.0218915  
C        C      0.631400000000     0.354150000000     0.072090000000     0.0218915  
C        C      0.520800000000     0.354680000000     0.073060000000     0.0218915  
C        C      0.334800000000     0.306060000000     0.022300000000     0.0218915  
C        C      0.146500000000     0.260490000000     0.973090000000     0.0218915  
C        C      0.450700000000     0.306350000000     0.023510000000     0.0218915  
C        C      0.495700000000     0.256350000000     0.971710000000     0.0218915  
C        C      0.610400000000     0.257960000000     0.971540000000     0.0218915  
C        C      0.423800000000     0.206820000000     0.922340000000     0.0218915  
C        C      0.267100000000     0.258270000000     0.973290000000     0.0218915  
C        C      0.313300000000     0.207800000000     0.923340000000     0.0218915  
C        C      0.943100000000     0.248070000000     0.711350000000     0.0218915  
C        C      0.867600000000     0.267670000000     0.820550000000     0.0218915  
C        C      0.804000000000     0.146210000000     0.796730000000     0.0218915  
C        C      0.754600000000     0.214410000000     0.717550000000     0.0218915  
C        C      0.876500000000     0.126990000000     0.687430000000     0.0218915  
C        C      0.994100000000     0.178970000000     0.791870000000     0.0218915  
C        C      0.557500000000     0.123450000000     0.592110000000     0.0218915  
C        C      0.440900000000     0.095690000000     0.484930000000     0.0218915  
C        C      0.455900000000     0.010740000000     0.553260000000     0.0218915  
C        C      0.637300000000     0.105470000000     0.483710000000     0.0218915  
C        C      0.648800000000     0.022070000000     0.551250000000     0.0218915  
C        C      0.533700000000     0.992870000000     0.445690000000     0.0218915  
C        C      0.253800000000     0.060230000000     0.722530000000     0.0218915  
C        C      0.285600000000     0.026540000000     0.779880000000     0.0218915  
C        C      0.224300000000     0.033300000000     0.835860000000     0.0218915  
C        C      0.258800000000     0.007160000000     0.893700000000     0.0218915  
C        C      0.200300000000     0.016720000000     0.953740000000     0.0218915  
C        C      0.239000000000     0.994840000000     0.009760000000     0.0218915  
C        C      0.391500000000     0.948590000000     0.951070000000     0.0218915  
C        C      0.415600000000     0.965050000000     0.832570000000     0.0218915  
C        C      0.381600000000     0.992210000000     0.778610000000     0.0218915  
C        C      0.335200000000     0.959850000000     0.008650000000     0.0218915  
C        C      0.378500000000     0.937490000000     0.071630000000     0.0218915  
C        C      0.356100000000     0.972320000000     0.891900000000     0.0218915  
C        C      0.170200000000     0.211800000000     0.551960000000     0.0218915  
C        C      0.147600000000     0.244840000000     0.492820000000     0.0218915  
C        C      0.223800000000     0.245420000000     0.444760000000     0.0218915  
C        C      0.201700000000     0.272070000000     0.386310000000     0.0218915  
C        C      0.099700000000     0.298980000000     0.376380000000     0.0218915  
C        C      0.022500000000     0.297430000000     0.426370000000     0.0218915  
C        C      0.046000000000     0.271590000000     0.482470000000     0.0218915  
C        C      0.278600000000     0.271020000000     0.336500000000     0.0218915  
C        C      0.254900000000     0.295580000000     0.279260000000     0.0218915  
C        C      0.077100000000     0.323190000000     0.315570000000     0.0218915  
C        C      0.153400000000     0.321270000000     0.268530000000     0.0218915  
C        C      0.125400000000     0.343040000000     0.201780000000     0.0218915  
C        C      0.320600000000     0.237450000000     0.726090000000     0.0218915  
C        C      0.388600000000     0.295330000000     0.777650000000     0.0218915  
C        C      0.341500000000     0.337590000000     0.830390000000     0.0218915  
C        C      0.406100000000     0.389640000000     0.880520000000     0.0218915  
C        C      0.358600000000     0.434470000000     0.935790000000     0.0218915  
C        C      0.585700000000     0.447990000000     0.929050000000     0.0218915  
C        C      0.520700000000     0.397100000000     0.876900000000     0.0218915  
C        C      0.567200000000     0.354460000000     0.821020000000     0.0218915  
C        C      0.502200000000     0.304530000000     0.772790000000     0.0218915  
C        C      0.538300000000     0.490560000000     0.981000000000     0.0218915  
C        C      0.606500000000     0.543950000000     0.034790000000     0.0218915  
C        C      0.423200000000     0.483950000000     0.983070000000     0.0218915  
C        C      0.177100000000     0.020070000000     0.305810000000     0.0218915  
C        C      0.298400000000     0.020150000000     0.306050000000     0.0218915  
C        C      0.131400000000     0.072090000000     0.354150000000     0.0218915  
C        C      0.020800000000     0.073060000000     0.354680000000     0.0218915  
C        C      0.834800000000     0.022300000000     0.306060000000     0.0218915  
C        C      0.646500000000     0.973090000000     0.260490000000     0.0218915  
C        C      0.950700000000     0.023510000000     0.306350000000     0.0218915  
C        C      0.995700000000     0.971710000000     0.256350000000     0.0218915  
C        C      0.110400000000     0.971540000000     0.257960000000     0.0218915  
C        C      0.923800000000     0.922340000000     0.206820000000     0.0218915  
C        C      0.767100000000     0.973290000000     0.258270000000     0.0218915  
C        C      0.813300000000     0.923340000000     0.207800000000     0.0218915  
N        N      0.473400000000     0.716880000000     0.177960000000    -0.115415   
N        N      0.346100000000     0.747550000000     0.267470000000    -0.115415   
N        N      0.279500000000     0.723310000000     0.144710000000    -0.115415   
N        N      0.396800000000     0.829720000000     0.198420000000    -0.115415   
N        N      0.951100000000     0.556940000000     0.086500000000    -0.115415   
N        N      0.032400000000     0.445430000000     0.068610000000    -0.115415   
N        N      0.150100000000     0.554550000000     0.096150000000    -0.115415   
N        N      0.046900000000     0.516480000000     0.983120000000    -0.115415   
N        N      0.973400000000     0.177960000000     0.716880000000    -0.115415   
N        N      0.846100000000     0.267470000000     0.747550000000    -0.115415   
N        N      0.779500000000     0.144710000000     0.723310000000    -0.115415   
N        N      0.896800000000     0.198420000000     0.829720000000    -0.115415   
N        N      0.451100000000     0.086500000000     0.556940000000    -0.115415   
N        N      0.532400000000     0.068610000000     0.445430000000    -0.115415   
N        N      0.650100000000     0.096150000000     0.554550000000    -0.115415   
N        N      0.546900000000     0.983120000000     0.516480000000    -0.115415   
O        O      0.816200000000     0.674780000000     0.056040000000    -0.293626   
O        O      0.669300000000     0.726960000000     0.092820000000    -0.293626   
O        O      0.835400000000     0.127400000000     0.962340000000    -0.293626   
O        O      0.952900000000     0.068600000000     0.898320000000    -0.293626   
O        O      0.760100000000     0.554360000000     0.185360000000    -0.293626   
O        O      0.599200000000     0.594220000000     0.212260000000    -0.293626   
O        O      0.694900000000     0.159600000000     0.342200000000    -0.293626   
O        O      0.528500000000     0.190160000000     0.358000000000    -0.293626   
O        O      0.873600000000     0.685090000000     0.197610000000    -0.293626   
O        O      0.718800000000     0.728170000000     0.233990000000    -0.293626   
O        O      0.056500000000     0.071980000000     0.591420000000    -0.293626   
O        O      0.207500000000     0.042580000000     0.539380000000    -0.293626   
O        O      0.109700000000     0.315230000000     0.006270000000    -0.293626   
O        O      0.088500000000     0.207400000000     0.939180000000    -0.293626   
O        O      0.854900000000     0.338010000000     0.074930000000    -0.293626   
O        O      0.838200000000     0.276980000000     0.964800000000    -0.293626   
O        O      0.316200000000     0.056040000000     0.674780000000    -0.293626   
O        O      0.169300000000     0.092820000000     0.726960000000    -0.293626   
O        O      0.335400000000     0.962340000000     0.127400000000    -0.293626   
O        O      0.452900000000     0.898320000000     0.068600000000    -0.293626   
O        O      0.260100000000     0.185360000000     0.554360000000    -0.293626   
O        O      0.099200000000     0.212260000000     0.594220000000    -0.293626   
O        O      0.194900000000     0.342200000000     0.159600000000    -0.293626   
O        O      0.028500000000     0.358000000000     0.190160000000    -0.293626   
O        O      0.373600000000     0.197610000000     0.685090000000    -0.293626   
O        O      0.218800000000     0.233990000000     0.728170000000    -0.293626   
O        O      0.556500000000     0.591420000000     0.071980000000    -0.293626   
O        O      0.707500000000     0.539380000000     0.042580000000    -0.293626   
O        O      0.609700000000     0.006270000000     0.315230000000    -0.293626   
O        O      0.588500000000     0.939180000000     0.207400000000    -0.293626   
O        O      0.354900000000     0.074930000000     0.338010000000    -0.293626   
O        O      0.338200000000     0.964800000000     0.276980000000    -0.293626   


