data_AMUCOB_original

_audit_creation_method RASPA-1.0
_audit_creation_date 2022-1-28
_audit_author_name 'Felipe Lopes de Oliveira <felipe.lopes.oliveira@ibm.com>'

_cell_length_a    8.637
_cell_length_b    12.27
_cell_length_c    12.27
_cell_angle_alpha 114.672
_cell_angle_beta  103.57
_cell_angle_gamma 103.57
_cell_volume      1064.12

_symmetry_cell_setting          triclinic
_symmetry_space_group_name_Hall 'P 1'
_symmetry_space_group_name_H-M  'P 1'
_symmetry_Int_Tables_number     1

_symmetry_equiv_pos_as_xyz 'x,y,z'

loop_
_atom_site_label
_atom_site_type_symbol
_atom_site_fract_x
_atom_site_fract_y
_atom_site_fract_z
_atom_site_charge
Ca       Ca     0.013590000000     0.424330000000     0.621670000000     1.57445    
Ca       Ca     0.589260000000     0.197340000000     0.575670000000     1.57445    
Ca       Ca     0.391920000000     0.378330000000     0.802660000000     1.57445    
Ca       Ca     0.986410000000     0.575670000000     0.378330000000     1.57445    
Ca       Ca     0.410740000000     0.802660000000     0.424330000000     1.57445    
Ca       Ca     0.608080000000     0.621670000000     0.197340000000     1.57445    
H        H      0.963400000000     0.183900000000     0.900800000000     0.0935475  
H        H      0.785300000000     0.132400000000     0.789400000000     0.0935475  
H        H      0.953800000000     0.390700000000     0.001200000000     0.0935475  
H        H      0.786700000000     0.349100000000     0.885600000000     0.0935475  
H        H      0.640600000000     0.203900000000     0.947400000000     0.0935475  
H        H      0.806100000000     0.272000000000     0.074000000000     0.0935475  
H        H      0.779500000000     0.716900000000     0.816100000000     0.0935475  
H        H      0.652900000000     0.657000000000     0.867600000000     0.0935475  
H        H      0.563100000000     0.610500000000     0.609300000000     0.0935475  
H        H      0.437600000000     0.536500000000     0.650900000000     0.0935475  
H        H      0.436700000000     0.743500000000     0.796100000000     0.0935475  
H        H      0.534100000000     0.802000000000     0.728000000000     0.0935475  
H        H      0.062600000000     0.099200000000     0.283100000000     0.0935475  
H        H      0.995900000000     0.210600000000     0.343000000000     0.0935475  
H        H      0.952600000000     0.998800000000     0.389500000000     0.0935475  
H        H      0.901100000000     0.114400000000     0.463500000000     0.0935475  
H        H      0.693200000000     0.052600000000     0.256500000000     0.0935475  
H        H      0.732100000000     0.926000000000     0.198000000000     0.0935475  
H        H      0.036600000000     0.816100000000     0.099200000000     0.0935475  
H        H      0.214700000000     0.867600000000     0.210600000000     0.0935475  
H        H      0.046200000000     0.609300000000     0.998800000000     0.0935475  
H        H      0.213300000000     0.650900000000     0.114400000000     0.0935475  
H        H      0.359400000000     0.796100000000     0.052600000000     0.0935475  
H        H      0.193900000000     0.728000000000     0.926000000000     0.0935475  
H        H      0.220500000000     0.283100000000     0.183900000000     0.0935475  
H        H      0.347100000000     0.343000000000     0.132400000000     0.0935475  
H        H      0.436900000000     0.389500000000     0.390700000000     0.0935475  
H        H      0.562400000000     0.463500000000     0.349100000000     0.0935475  
H        H      0.563300000000     0.256500000000     0.203900000000     0.0935475  
H        H      0.465900000000     0.198000000000     0.272000000000     0.0935475  
H        H      0.937400000000     0.900800000000     0.716900000000     0.0935475  
H        H      0.004100000000     0.789400000000     0.657000000000     0.0935475  
H        H      0.047400000000     0.001200000000     0.610500000000     0.0935475  
H        H      0.098900000000     0.885600000000     0.536500000000     0.0935475  
H        H      0.306800000000     0.947400000000     0.743500000000     0.0935475  
H        H      0.267900000000     0.074000000000     0.802000000000     0.0935475  
C        C      0.980800000000     0.249400000000     0.773800000000     0.0605811  
C        C      0.890300000000     0.207600000000     0.848900000000     0.0605811  
C        C      0.847200000000     0.319300000000     0.937600000000     0.0605811  
C        C      0.738400000000     0.284400000000     0.008200000000     0.0605811  
C        C      0.676700000000     0.390800000000     0.069500000000     0.0605811  
C        C      0.731400000000     0.524400000000     0.750600000000     0.0605811  
C        C      0.682700000000     0.641300000000     0.792400000000     0.0605811  
C        C      0.527900000000     0.618300000000     0.680700000000     0.0605811  
C        C      0.454000000000     0.723800000000     0.715600000000     0.0605811  
C        C      0.285900000000     0.678700000000     0.609200000000     0.0605811  
C        C      0.207000000000     0.226200000000     0.475600000000     0.0605811  
C        C      0.041400000000     0.151100000000     0.358700000000     0.0605811  
C        C      0.909600000000     0.062400000000     0.381700000000     0.0605811  
C        C      0.730200000000     0.991800000000     0.276200000000     0.0605811  
C        C      0.607200000000     0.930500000000     0.321300000000     0.0605811  
C        C      0.019200000000     0.750600000000     0.226200000000     0.0605811  
C        C      0.109700000000     0.792400000000     0.151100000000     0.0605811  
C        C      0.152800000000     0.680700000000     0.062400000000     0.0605811  
C        C      0.261600000000     0.715600000000     0.991800000000     0.0605811  
C        C      0.323300000000     0.609200000000     0.930500000000     0.0605811  
C        C      0.268600000000     0.475600000000     0.249400000000     0.0605811  
C        C      0.317300000000     0.358700000000     0.207600000000     0.0605811  
C        C      0.472100000000     0.381700000000     0.319300000000     0.0605811  
C        C      0.546000000000     0.276200000000     0.284400000000     0.0605811  
C        C      0.714100000000     0.321300000000     0.390800000000     0.0605811  
C        C      0.793000000000     0.773800000000     0.524400000000     0.0605811  
C        C      0.958600000000     0.848900000000     0.641300000000     0.0605811  
C        C      0.090400000000     0.937600000000     0.618300000000     0.0605811  
C        C      0.269800000000     0.008200000000     0.723800000000     0.0605811  
C        C      0.392800000000     0.069500000000     0.678700000000     0.0605811  
O        O      0.893900000000     0.265900000000     0.686800000000    -0.609661   
O        O      0.137400000000     0.273100000000     0.807700000000    -0.609661   
O        O      0.555900000000     0.404300000000     0.002300000000    -0.609661   
O        O      0.748800000000     0.467400000000     0.188800000000    -0.609661   
O        O      0.628000000000     0.420900000000     0.734100000000    -0.609661   
O        O      0.864300000000     0.534600000000     0.726900000000    -0.609661   
O        O      0.151600000000     0.598000000000     0.595700000000    -0.609661   
O        O      0.281400000000     0.721400000000     0.532600000000    -0.609661   
O        O      0.207100000000     0.313200000000     0.579100000000    -0.609661   
O        O      0.329700000000     0.192300000000     0.465400000000    -0.609661   
O        O      0.553600000000     0.997700000000     0.402000000000    -0.609661   
O        O      0.560000000000     0.811200000000     0.278600000000    -0.609661   
O        O      0.106100000000     0.734100000000     0.313200000000    -0.609661   
O        O      0.862600000000     0.726900000000     0.192300000000    -0.609661   
O        O      0.444100000000     0.595700000000     0.997700000000    -0.609661   
O        O      0.251200000000     0.532600000000     0.811200000000    -0.609661   
O        O      0.372000000000     0.579100000000     0.265900000000    -0.609661   
O        O      0.135700000000     0.465400000000     0.273100000000    -0.609661   
O        O      0.848400000000     0.402000000000     0.404300000000    -0.609661   
O        O      0.718600000000     0.278600000000     0.467400000000    -0.609661   
O        O      0.792900000000     0.686800000000     0.420900000000    -0.609661   
O        O      0.670300000000     0.807700000000     0.534600000000    -0.609661   
O        O      0.446400000000     0.002300000000     0.598000000000    -0.609661   
O        O      0.440000000000     0.188800000000     0.721400000000    -0.609661   


