data_APEBED_original

_audit_creation_method RASPA-1.0
_audit_creation_date 2022-1-31
_audit_author_name 'Felipe Lopes de Oliveira <felipe.lopes.oliveira@ibm.com>'

_cell_length_a    10.2151
_cell_length_b    13.117
_cell_length_c    14.136
_cell_angle_alpha 90
_cell_angle_beta  90
_cell_angle_gamma 90
_cell_volume      1894.1

_symmetry_cell_setting          triclinic
_symmetry_space_group_name_Hall 'P 1'
_symmetry_space_group_name_H-M  'P 1'
_symmetry_Int_Tables_number     1

_symmetry_equiv_pos_as_xyz 'x,y,z'

loop_
_atom_site_label
_atom_site_type_symbol
_atom_site_fract_x
_atom_site_fract_y
_atom_site_fract_z
_atom_site_charge
Zn       Zn     0.114090000000     0.930770000000     0.285640000000     0.496426   
Zn       Zn     0.092060000000     0.233570000000     0.279640000000     0.496426   
Zn       Zn     0.385910000000     0.069230000000     0.785640000000     0.496426   
Zn       Zn     0.407940000000     0.766430000000     0.779640000000     0.496426   
Zn       Zn     0.885910000000     0.430770000000     0.214360000000     0.496426   
Zn       Zn     0.907940000000     0.733570000000     0.220360000000     0.496426   
Zn       Zn     0.614090000000     0.569230000000     0.714360000000     0.496426   
Zn       Zn     0.592060000000     0.266430000000     0.720360000000     0.496426   
H        H      0.523600000000     0.954900000000     0.300600000000     0.0595922  
H        H      0.750000000000     0.010400000000     0.291500000000     0.0595922  
H        H      0.673500000000     0.782900000000     0.450700000000     0.0595922  
H        H      0.518000000000     0.863700000000     0.553600000000     0.0595922  
H        H      0.976400000000     0.045100000000     0.800600000000     0.0595922  
H        H      0.750000000000     0.989600000000     0.791500000000     0.0595922  
H        H      0.826500000000     0.217100000000     0.950700000000     0.0595922  
H        H      0.982000000000     0.136300000000     0.053600000000     0.0595922  
H        H      0.476400000000     0.454900000000     0.199400000000     0.0595922  
H        H      0.250000000000     0.510400000000     0.208500000000     0.0595922  
H        H      0.326500000000     0.282900000000     0.049300000000     0.0595922  
H        H      0.482000000000     0.363700000000     0.946400000000     0.0595922  
H        H      0.023600000000     0.545100000000     0.699400000000     0.0595922  
H        H      0.250000000000     0.489600000000     0.708500000000     0.0595922  
H        H      0.173500000000     0.717100000000     0.549300000000     0.0595922  
H        H      0.018000000000     0.636300000000     0.446400000000     0.0595922  
C        C      0.463100000000     0.095100000000     0.261900000000     0.0843384  
C        C      0.548600000000     0.020500000000     0.283700000000     0.0843384  
C        C      0.679100000000     0.052500000000     0.278000000000     0.0843384  
C        C      0.691400000000     0.150900000000     0.250900000000     0.0843384  
C        C      0.318100000000     0.093100000000     0.266100000000     0.0843384  
C        C      0.810900000000     0.212600000000     0.243800000000     0.0843384  
C        C      0.795100000000     0.904400000000     0.461300000000     0.0843384  
C        C      0.686300000000     0.847100000000     0.477100000000     0.0843384  
C        C      0.597100000000     0.893400000000     0.536300000000     0.0843384  
C        C      0.635900000000     0.986500000000     0.566700000000     0.0843384  
C        C      0.904500000000     0.884300000000     0.396800000000     0.0843384  
C        C      0.572000000000     0.057000000000     0.634300000000     0.0843384  
C        C      0.036900000000     0.904900000000     0.761900000000     0.0843384  
C        C      0.951400000000     0.979500000000     0.783700000000     0.0843384  
C        C      0.820900000000     0.947500000000     0.778000000000     0.0843384  
C        C      0.808600000000     0.849100000000     0.750900000000     0.0843384  
C        C      0.181900000000     0.906900000000     0.766100000000     0.0843384  
C        C      0.689100000000     0.787400000000     0.743800000000     0.0843384  
C        C      0.704900000000     0.095600000000     0.961300000000     0.0843384  
C        C      0.813700000000     0.152900000000     0.977100000000     0.0843384  
C        C      0.902900000000     0.106600000000     0.036300000000     0.0843384  
C        C      0.864100000000     0.013500000000     0.066700000000     0.0843384  
C        C      0.595500000000     0.115700000000     0.896800000000     0.0843384  
C        C      0.928000000000     0.943000000000     0.134300000000     0.0843384  
C        C      0.536900000000     0.595100000000     0.238100000000     0.0843384  
C        C      0.451400000000     0.520500000000     0.216300000000     0.0843384  
C        C      0.320900000000     0.552500000000     0.222000000000     0.0843384  
C        C      0.308600000000     0.650900000000     0.249100000000     0.0843384  
C        C      0.681900000000     0.593100000000     0.233900000000     0.0843384  
C        C      0.189100000000     0.712600000000     0.256200000000     0.0843384  
C        C      0.204900000000     0.404400000000     0.038700000000     0.0843384  
C        C      0.313700000000     0.347100000000     0.022900000000     0.0843384  
C        C      0.402900000000     0.393400000000     0.963700000000     0.0843384  
C        C      0.364100000000     0.486500000000     0.933300000000     0.0843384  
C        C      0.095500000000     0.384300000000     0.103200000000     0.0843384  
C        C      0.428000000000     0.557000000000     0.865700000000     0.0843384  
C        C      0.963100000000     0.404900000000     0.738100000000     0.0843384  
C        C      0.048600000000     0.479500000000     0.716300000000     0.0843384  
C        C      0.179100000000     0.447500000000     0.722000000000     0.0843384  
C        C      0.191400000000     0.349100000000     0.749100000000     0.0843384  
C        C      0.818100000000     0.406900000000     0.733900000000     0.0843384  
C        C      0.310900000000     0.287400000000     0.756200000000     0.0843384  
C        C      0.295100000000     0.595600000000     0.538700000000     0.0843384  
C        C      0.186300000000     0.652900000000     0.522900000000     0.0843384  
C        C      0.097100000000     0.606600000000     0.463700000000     0.0843384  
C        C      0.135900000000     0.513500000000     0.433300000000     0.0843384  
C        C      0.404500000000     0.615700000000     0.603200000000     0.0843384  
C        C      0.072000000000     0.443000000000     0.365700000000     0.0843384  
S        S      0.541480000000     0.206390000000     0.231300000000     0.0891589  
S        S      0.786310000000     0.017230000000     0.522150000000     0.0891589  
S        S      0.958520000000     0.793610000000     0.731300000000     0.0891589  
S        S      0.713690000000     0.982770000000     0.022150000000     0.0891589  
S        S      0.458520000000     0.706390000000     0.268700000000     0.0891589  
S        S      0.213690000000     0.517230000000     0.977850000000     0.0891589  
S        S      0.041480000000     0.293610000000     0.768700000000     0.0891589  
S        S      0.286310000000     0.482770000000     0.477850000000     0.0891589  
O        O      0.270400000000     0.010800000000     0.296900000000    -0.3027     
O        O      0.794400000000     0.302500000000     0.213900000000    -0.3027     
O        O      0.989000000000     0.954400000000     0.386400000000    -0.3027     
O        O      0.462900000000     0.030400000000     0.665500000000    -0.3027     
O        O      0.258100000000     0.170600000000     0.242400000000    -0.3027     
O        O      0.909500000000     0.800500000000     0.355800000000    -0.3027     
O        O      0.632100000000     0.137200000000     0.655800000000    -0.3027     
O        O      0.917000000000     0.174300000000     0.269400000000    -0.3027     
O        O      0.229600000000     0.989200000000     0.796900000000    -0.3027     
O        O      0.705600000000     0.697500000000     0.713900000000    -0.3027     
O        O      0.511000000000     0.045600000000     0.886400000000    -0.3027     
O        O      0.037100000000     0.969600000000     0.165500000000    -0.3027     
O        O      0.241900000000     0.829400000000     0.742400000000    -0.3027     
O        O      0.590500000000     0.199500000000     0.855800000000    -0.3027     
O        O      0.867900000000     0.862800000000     0.155800000000    -0.3027     
O        O      0.583000000000     0.825700000000     0.769400000000    -0.3027     
O        O      0.729600000000     0.510800000000     0.203100000000    -0.3027     
O        O      0.205600000000     0.802500000000     0.286100000000    -0.3027     
O        O      0.011000000000     0.454400000000     0.113600000000    -0.3027     
O        O      0.537100000000     0.530400000000     0.834500000000    -0.3027     
O        O      0.741900000000     0.670600000000     0.257600000000    -0.3027     
O        O      0.090500000000     0.300500000000     0.144200000000    -0.3027     
O        O      0.367900000000     0.637200000000     0.844200000000    -0.3027     
O        O      0.083000000000     0.674300000000     0.230600000000    -0.3027     
O        O      0.770400000000     0.489200000000     0.703100000000    -0.3027     
O        O      0.294400000000     0.197500000000     0.786100000000    -0.3027     
O        O      0.489000000000     0.545600000000     0.613600000000    -0.3027     
O        O      0.962900000000     0.469600000000     0.334500000000    -0.3027     
O        O      0.758100000000     0.329400000000     0.757600000000    -0.3027     
O        O      0.409500000000     0.699500000000     0.644200000000    -0.3027     
O        O      0.132100000000     0.362800000000     0.344200000000    -0.3027     
O        O      0.417000000000     0.325700000000     0.730600000000    -0.3027     


