data_ASACON_original

_audit_creation_method RASPA-1.0
_audit_creation_date 2022-1-30
_audit_author_name 'Felipe Lopes de Oliveira <felipe.lopes.oliveira@ibm.com>'

_cell_length_a    12.056
_cell_length_b    15.383
_cell_length_c    15.987
_cell_angle_alpha 90
_cell_angle_beta  90
_cell_angle_gamma 90
_cell_volume      2964.91

_symmetry_cell_setting          triclinic
_symmetry_space_group_name_Hall 'P 1'
_symmetry_space_group_name_H-M  'P 1'
_symmetry_Int_Tables_number     1

_symmetry_equiv_pos_as_xyz 'x,y,z'

loop_
_atom_site_label
_atom_site_type_symbol
_atom_site_fract_x
_atom_site_fract_y
_atom_site_fract_z
_atom_site_charge
Zn       Zn     0.025060000000     0.813240000000     0.947670000000     0.501557   
Zn       Zn     0.974940000000     0.813240000000     0.552330000000     0.501557   
Zn       Zn     0.525060000000     0.686760000000     0.552330000000     0.501557   
Zn       Zn     0.474940000000     0.686760000000     0.947670000000     0.501557   
Zn       Zn     0.974940000000     0.186760000000     0.052330000000     0.501557   
Zn       Zn     0.025060000000     0.186760000000     0.447670000000     0.501557   
Zn       Zn     0.474940000000     0.313240000000     0.447670000000     0.501557   
Zn       Zn     0.525060000000     0.313240000000     0.052330000000     0.501557   
Zn       Zn     0.250000000000     0.750000000000     0.841060000000     0.501557   
Zn       Zn     0.750000000000     0.750000000000     0.658940000000     0.501557   
Zn       Zn     0.750000000000     0.250000000000     0.158940000000     0.501557   
Zn       Zn     0.250000000000     0.250000000000     0.341060000000     0.501557   
Zn       Zn     0.000000000000     0.186360000000     0.250000000000     0.501557   
Zn       Zn     0.500000000000     0.313640000000     0.250000000000     0.501557   
Zn       Zn     0.000000000000     0.813640000000     0.750000000000     0.501557   
Zn       Zn     0.500000000000     0.686360000000     0.750000000000     0.501557   
H        H      0.967000000000     0.574300000000     0.087500000000     0.0715305  
H        H      0.972300000000     0.444800000000     0.156000000000     0.0715305  
H        H      0.033000000000     0.574300000000     0.412500000000     0.0715305  
H        H      0.027700000000     0.444800000000     0.344000000000     0.0715305  
H        H      0.467000000000     0.925700000000     0.412500000000     0.0715305  
H        H      0.472300000000     0.055200000000     0.344000000000     0.0715305  
H        H      0.533000000000     0.925700000000     0.087500000000     0.0715305  
H        H      0.527700000000     0.055200000000     0.156000000000     0.0715305  
H        H      0.033000000000     0.425700000000     0.912500000000     0.0715305  
H        H      0.027700000000     0.555200000000     0.844000000000     0.0715305  
H        H      0.967000000000     0.425700000000     0.587500000000     0.0715305  
H        H      0.972300000000     0.555200000000     0.656000000000     0.0715305  
H        H      0.533000000000     0.074300000000     0.587500000000     0.0715305  
H        H      0.527700000000     0.944800000000     0.656000000000     0.0715305  
H        H      0.467000000000     0.074300000000     0.912500000000     0.0715305  
H        H      0.472300000000     0.944800000000     0.844000000000     0.0715305  
C        C      0.032800000000     0.542900000000     0.088900000000     0.111243   
C        C      0.126400000000     0.575000000000     0.046800000000     0.111243   
C        C      0.117100000000     0.654600000000     0.993700000000     0.111243   
C        C      0.226900000000     0.526700000000     0.048800000000     0.111243   
C        C      0.230800000000     0.450200000000     0.100800000000     0.111243   
C        C      0.342400000000     0.406200000000     0.111200000000     0.111243   
C        C      0.136600000000     0.420100000000     0.140100000000     0.111243   
C        C      0.133900000000     0.340500000000     0.193700000000     0.111243   
C        C      0.036700000000     0.466600000000     0.131800000000     0.111243   
C        C      0.325500000000     0.552400000000     0.997600000000     0.111243   
C        C      0.967200000000     0.542900000000     0.411100000000     0.111243   
C        C      0.873600000000     0.575000000000     0.453200000000     0.111243   
C        C      0.882900000000     0.654600000000     0.506300000000     0.111243   
C        C      0.773100000000     0.526700000000     0.451200000000     0.111243   
C        C      0.769200000000     0.450200000000     0.399200000000     0.111243   
C        C      0.657600000000     0.406200000000     0.388800000000     0.111243   
C        C      0.863400000000     0.420100000000     0.359900000000     0.111243   
C        C      0.866100000000     0.340500000000     0.306300000000     0.111243   
C        C      0.963300000000     0.466600000000     0.368200000000     0.111243   
C        C      0.674500000000     0.552400000000     0.502400000000     0.111243   
C        C      0.532800000000     0.957100000000     0.411100000000     0.111243   
C        C      0.626400000000     0.925000000000     0.453200000000     0.111243   
C        C      0.617100000000     0.845400000000     0.506300000000     0.111243   
C        C      0.726900000000     0.973300000000     0.451200000000     0.111243   
C        C      0.730800000000     0.049800000000     0.399200000000     0.111243   
C        C      0.842400000000     0.093800000000     0.388800000000     0.111243   
C        C      0.636600000000     0.079900000000     0.359900000000     0.111243   
C        C      0.633900000000     0.159500000000     0.306300000000     0.111243   
C        C      0.536700000000     0.033400000000     0.368200000000     0.111243   
C        C      0.825500000000     0.947600000000     0.502400000000     0.111243   
C        C      0.467200000000     0.957100000000     0.088900000000     0.111243   
C        C      0.373600000000     0.925000000000     0.046800000000     0.111243   
C        C      0.382900000000     0.845400000000     0.993700000000     0.111243   
C        C      0.273100000000     0.973300000000     0.048800000000     0.111243   
C        C      0.269200000000     0.049800000000     0.100800000000     0.111243   
C        C      0.157600000000     0.093800000000     0.111200000000     0.111243   
C        C      0.363400000000     0.079900000000     0.140100000000     0.111243   
C        C      0.366100000000     0.159500000000     0.193700000000     0.111243   
C        C      0.463300000000     0.033400000000     0.131800000000     0.111243   
C        C      0.174500000000     0.947600000000     0.997600000000     0.111243   
C        C      0.967200000000     0.457100000000     0.911100000000     0.111243   
C        C      0.873600000000     0.425000000000     0.953200000000     0.111243   
C        C      0.882900000000     0.345400000000     0.006300000000     0.111243   
C        C      0.773100000000     0.473300000000     0.951200000000     0.111243   
C        C      0.769200000000     0.549800000000     0.899200000000     0.111243   
C        C      0.657600000000     0.593800000000     0.888800000000     0.111243   
C        C      0.863400000000     0.579900000000     0.859900000000     0.111243   
C        C      0.866100000000     0.659500000000     0.806300000000     0.111243   
C        C      0.963300000000     0.533400000000     0.868200000000     0.111243   
C        C      0.674500000000     0.447600000000     0.002400000000     0.111243   
C        C      0.032800000000     0.457100000000     0.588900000000     0.111243   
C        C      0.126400000000     0.425000000000     0.546800000000     0.111243   
C        C      0.117100000000     0.345400000000     0.493700000000     0.111243   
C        C      0.226900000000     0.473300000000     0.548800000000     0.111243   
C        C      0.230800000000     0.549800000000     0.600800000000     0.111243   
C        C      0.342400000000     0.593800000000     0.611200000000     0.111243   
C        C      0.136600000000     0.579900000000     0.640100000000     0.111243   
C        C      0.133900000000     0.659500000000     0.693700000000     0.111243   
C        C      0.036700000000     0.533400000000     0.631800000000     0.111243   
C        C      0.325500000000     0.447600000000     0.497600000000     0.111243   
C        C      0.467200000000     0.042900000000     0.588900000000     0.111243   
C        C      0.373600000000     0.075000000000     0.546800000000     0.111243   
C        C      0.382900000000     0.154600000000     0.493700000000     0.111243   
C        C      0.273100000000     0.026700000000     0.548800000000     0.111243   
C        C      0.269200000000     0.950200000000     0.600800000000     0.111243   
C        C      0.157600000000     0.906200000000     0.611200000000     0.111243   
C        C      0.363400000000     0.920100000000     0.640100000000     0.111243   
C        C      0.366100000000     0.840500000000     0.693700000000     0.111243   
C        C      0.463300000000     0.966600000000     0.631800000000     0.111243   
C        C      0.174500000000     0.052400000000     0.497600000000     0.111243   
C        C      0.532800000000     0.042900000000     0.911100000000     0.111243   
C        C      0.626400000000     0.075000000000     0.953200000000     0.111243   
C        C      0.617100000000     0.154600000000     0.006300000000     0.111243   
C        C      0.726900000000     0.026700000000     0.951200000000     0.111243   
C        C      0.730800000000     0.950200000000     0.899200000000     0.111243   
C        C      0.842400000000     0.906200000000     0.888800000000     0.111243   
C        C      0.636600000000     0.920100000000     0.859900000000     0.111243   
C        C      0.633900000000     0.840500000000     0.806300000000     0.111243   
C        C      0.536700000000     0.966600000000     0.868200000000     0.111243   
C        C      0.825500000000     0.052400000000     0.002400000000     0.111243   
O        O      0.037100000000     0.705300000000     0.011200000000    -0.250956   
O        O      0.186500000000     0.667100000000     0.939000000000    -0.250956   
O        O      0.342300000000     0.516100000000     0.930500000000    -0.250956   
O        O      0.387200000000     0.612000000000     0.028000000000    -0.250956   
O        O      0.372400000000     0.358600000000     0.050200000000    -0.250956   
O        O      0.394900000000     0.417600000000     0.176300000000    -0.250956   
O        O      0.194700000000     0.342800000000     0.258100000000    -0.250956   
O        O      0.069800000000     0.280300000000     0.173400000000    -0.250956   
O        O      0.390600000000     0.672800000000     0.843400000000    -0.250956   
O        O      0.962900000000     0.705300000000     0.488800000000    -0.250956   
O        O      0.813500000000     0.667100000000     0.561000000000    -0.250956   
O        O      0.657700000000     0.516100000000     0.569500000000    -0.250956   
O        O      0.612800000000     0.612000000000     0.472000000000    -0.250956   
O        O      0.627600000000     0.358600000000     0.449800000000    -0.250956   
O        O      0.605100000000     0.417600000000     0.323700000000    -0.250956   
O        O      0.805300000000     0.342800000000     0.241900000000    -0.250956   
O        O      0.930200000000     0.280300000000     0.326600000000    -0.250956   
O        O      0.609400000000     0.672800000000     0.656600000000    -0.250956   
O        O      0.537100000000     0.794700000000     0.488800000000    -0.250956   
O        O      0.686500000000     0.832900000000     0.561000000000    -0.250956   
O        O      0.842300000000     0.983900000000     0.569500000000    -0.250956   
O        O      0.887200000000     0.888000000000     0.472000000000    -0.250956   
O        O      0.872400000000     0.141400000000     0.449800000000    -0.250956   
O        O      0.894900000000     0.082400000000     0.323700000000    -0.250956   
O        O      0.694700000000     0.157200000000     0.241900000000    -0.250956   
O        O      0.569800000000     0.219700000000     0.326600000000    -0.250956   
O        O      0.890600000000     0.827200000000     0.656600000000    -0.250956   
O        O      0.462900000000     0.794700000000     0.011200000000    -0.250956   
O        O      0.313500000000     0.832900000000     0.939000000000    -0.250956   
O        O      0.157700000000     0.983900000000     0.930500000000    -0.250956   
O        O      0.112800000000     0.888000000000     0.028000000000    -0.250956   
O        O      0.127600000000     0.141400000000     0.050200000000    -0.250956   
O        O      0.105100000000     0.082400000000     0.176300000000    -0.250956   
O        O      0.305300000000     0.157200000000     0.258100000000    -0.250956   
O        O      0.430200000000     0.219700000000     0.173400000000    -0.250956   
O        O      0.109400000000     0.827200000000     0.843400000000    -0.250956   
O        O      0.962900000000     0.294700000000     0.988800000000    -0.250956   
O        O      0.813500000000     0.332900000000     0.061000000000    -0.250956   
O        O      0.657700000000     0.483900000000     0.069500000000    -0.250956   
O        O      0.612800000000     0.388000000000     0.972000000000    -0.250956   
O        O      0.627600000000     0.641400000000     0.949800000000    -0.250956   
O        O      0.605100000000     0.582400000000     0.823700000000    -0.250956   
O        O      0.805300000000     0.657200000000     0.741900000000    -0.250956   
O        O      0.930200000000     0.719700000000     0.826600000000    -0.250956   
O        O      0.609400000000     0.327200000000     0.156600000000    -0.250956   
O        O      0.037100000000     0.294700000000     0.511200000000    -0.250956   
O        O      0.186500000000     0.332900000000     0.439000000000    -0.250956   
O        O      0.342300000000     0.483900000000     0.430500000000    -0.250956   
O        O      0.387200000000     0.388000000000     0.528000000000    -0.250956   
O        O      0.372400000000     0.641400000000     0.550200000000    -0.250956   
O        O      0.394900000000     0.582400000000     0.676300000000    -0.250956   
O        O      0.194700000000     0.657200000000     0.758100000000    -0.250956   
O        O      0.069800000000     0.719700000000     0.673400000000    -0.250956   
O        O      0.390600000000     0.327200000000     0.343400000000    -0.250956   
O        O      0.462900000000     0.205300000000     0.511200000000    -0.250956   
O        O      0.313500000000     0.167100000000     0.439000000000    -0.250956   
O        O      0.157700000000     0.016100000000     0.430500000000    -0.250956   
O        O      0.112800000000     0.112000000000     0.528000000000    -0.250956   
O        O      0.127600000000     0.858600000000     0.550200000000    -0.250956   
O        O      0.105100000000     0.917600000000     0.676300000000    -0.250956   
O        O      0.305300000000     0.842800000000     0.758100000000    -0.250956   
O        O      0.430200000000     0.780300000000     0.673400000000    -0.250956   
O        O      0.109400000000     0.172800000000     0.343400000000    -0.250956   
O        O      0.537100000000     0.205300000000     0.988800000000    -0.250956   
O        O      0.686500000000     0.167100000000     0.061000000000    -0.250956   
O        O      0.842300000000     0.016100000000     0.069500000000    -0.250956   
O        O      0.887200000000     0.112000000000     0.972000000000    -0.250956   
O        O      0.872400000000     0.858600000000     0.949800000000    -0.250956   
O        O      0.894900000000     0.917600000000     0.823700000000    -0.250956   
O        O      0.694700000000     0.842800000000     0.741900000000    -0.250956   
O        O      0.569800000000     0.780300000000     0.826600000000    -0.250956   
O        O      0.890600000000     0.172800000000     0.156600000000    -0.250956   


