data_ASALIP_original

_audit_creation_method RASPA-1.0
_audit_creation_date 2022-1-31
_audit_author_name 'Felipe Lopes de Oliveira <felipe.lopes.oliveira@ibm.com>'

_cell_length_a    7.2039
_cell_length_b    8.7309
_cell_length_c    16.234
_cell_angle_alpha 90
_cell_angle_beta  90
_cell_angle_gamma 90
_cell_volume      1021.06

_symmetry_cell_setting          triclinic
_symmetry_space_group_name_Hall 'P 1'
_symmetry_space_group_name_H-M  'P 1'
_symmetry_Int_Tables_number     1

_symmetry_equiv_pos_as_xyz 'x,y,z'

loop_
_atom_site_label
_atom_site_type_symbol
_atom_site_fract_x
_atom_site_fract_y
_atom_site_fract_z
_atom_site_charge
Zn       Zn     0.257850000000     0.457650000000     0.958970000000     0.356742   
Zn       Zn     0.242150000000     0.542350000000     0.458970000000     0.356742   
Zn       Zn     0.742150000000     0.957650000000     0.541030000000     0.356742   
Zn       Zn     0.757850000000     0.042350000000     0.041030000000     0.356742   
H        H      0.092200000000     0.674200000000     0.616400000000     0.078726   
H        H      0.843300000000     0.522500000000     0.919400000000     0.078726   
H        H      0.809000000000     0.627500000000     0.680200000000     0.078726   
H        H      0.669200000000     0.605100000000     0.808600000000     0.078726   
H        H      0.275900000000     0.469200000000     0.779000000000     0.078726   
H        H      0.234000000000     0.467100000000     0.541600000000     0.078726   
H        H      0.036500000000     0.444000000000     0.565800000000     0.078726   
H        H      0.316100000000     0.741800000000     0.692100000000     0.078726   
H        H      0.418700000000     0.586900000000     0.678800000000     0.078726   
H        H      0.407800000000     0.325800000000     0.116400000000     0.078726   
H        H      0.656700000000     0.477500000000     0.419400000000     0.078726   
H        H      0.691000000000     0.372500000000     0.180200000000     0.078726   
H        H      0.830800000000     0.394900000000     0.308600000000     0.078726   
H        H      0.224100000000     0.530800000000     0.279000000000     0.078726   
H        H      0.266000000000     0.532900000000     0.041600000000     0.078726   
H        H      0.463500000000     0.556000000000     0.065800000000     0.078726   
H        H      0.183900000000     0.258200000000     0.192100000000     0.078726   
H        H      0.081300000000     0.413100000000     0.178800000000     0.078726   
H        H      0.907800000000     0.174200000000     0.883600000000     0.078726   
H        H      0.156700000000     0.022500000000     0.580600000000     0.078726   
H        H      0.191000000000     0.127500000000     0.819800000000     0.078726   
H        H      0.330800000000     0.105100000000     0.691400000000     0.078726   
H        H      0.724100000000     0.969200000000     0.721000000000     0.078726   
H        H      0.766000000000     0.967100000000     0.958400000000     0.078726   
H        H      0.963500000000     0.944000000000     0.934200000000     0.078726   
H        H      0.683900000000     0.241800000000     0.807900000000     0.078726   
H        H      0.581300000000     0.086900000000     0.821200000000     0.078726   
H        H      0.592200000000     0.825800000000     0.383600000000     0.078726   
H        H      0.343300000000     0.977500000000     0.080600000000     0.078726   
H        H      0.309000000000     0.872500000000     0.319800000000     0.078726   
H        H      0.169200000000     0.894900000000     0.191400000000     0.078726   
H        H      0.775900000000     0.030800000000     0.221000000000     0.078726   
H        H      0.734000000000     0.032900000000     0.458400000000     0.078726   
H        H      0.536500000000     0.056000000000     0.434200000000     0.078726   
H        H      0.816100000000     0.758200000000     0.307900000000     0.078726   
H        H      0.918700000000     0.913100000000     0.321200000000     0.078726   
C        C      0.164500000000     0.587300000000     0.637100000000     0.0163494  
C        C      0.062100000000     0.555600000000     0.716500000000     0.0163494  
C        C      0.899100000000     0.530300000000     0.867900000000     0.0163494  
C        C      0.877100000000     0.593500000000     0.725300000000     0.0163494  
C        C      0.793900000000     0.580500000000     0.801700000000     0.0163494  
C        C      0.153700000000     0.501500000000     0.785200000000     0.0163494  
C        C      0.338900000000     0.661400000000     0.652100000000     0.0163494  
C        C      0.449900000000     0.732100000000     0.582900000000     0.0163494  
C        C      0.335500000000     0.412700000000     0.137100000000     0.0163494  
C        C      0.437900000000     0.444400000000     0.216500000000     0.0163494  
C        C      0.600900000000     0.469700000000     0.367900000000     0.0163494  
C        C      0.622900000000     0.406500000000     0.225300000000     0.0163494  
C        C      0.706100000000     0.419500000000     0.301700000000     0.0163494  
C        C      0.346300000000     0.498500000000     0.285200000000     0.0163494  
C        C      0.161100000000     0.338600000000     0.152100000000     0.0163494  
C        C      0.050100000000     0.267900000000     0.082900000000     0.0163494  
C        C      0.835500000000     0.087300000000     0.862900000000     0.0163494  
C        C      0.937900000000     0.055600000000     0.783500000000     0.0163494  
C        C      0.100900000000     0.030300000000     0.632100000000     0.0163494  
C        C      0.122900000000     0.093500000000     0.774700000000     0.0163494  
C        C      0.206100000000     0.080500000000     0.698300000000     0.0163494  
C        C      0.846300000000     0.001500000000     0.714800000000     0.0163494  
C        C      0.661100000000     0.161400000000     0.847900000000     0.0163494  
C        C      0.550100000000     0.232100000000     0.917100000000     0.0163494  
C        C      0.664500000000     0.912700000000     0.362900000000     0.0163494  
C        C      0.562100000000     0.944400000000     0.283500000000     0.0163494  
C        C      0.399100000000     0.969700000000     0.132100000000     0.0163494  
C        C      0.377100000000     0.906500000000     0.274700000000     0.0163494  
C        C      0.293900000000     0.919500000000     0.198300000000     0.0163494  
C        C      0.653700000000     0.998500000000     0.214800000000     0.0163494  
C        C      0.838900000000     0.838600000000     0.347900000000     0.0163494  
C        C      0.949900000000     0.767900000000     0.417100000000     0.0163494  
N        N      0.077300000000     0.492800000000     0.860300000000    -0.251321   
N        N      0.142300000000     0.487200000000     0.573700000000    -0.251321   
N        N      0.422700000000     0.507200000000     0.360300000000    -0.251321   
N        N      0.357700000000     0.512800000000     0.073700000000    -0.251321   
N        N      0.922700000000     0.992800000000     0.639700000000    -0.251321   
N        N      0.857700000000     0.987200000000     0.926300000000    -0.251321   
N        N      0.577300000000     0.007200000000     0.139700000000    -0.251321   
N        N      0.642300000000     0.012800000000     0.426300000000    -0.251321   
O        O      0.572100000000     0.824100000000     0.605300000000    -0.346715   
O        O      0.421000000000     0.698400000000     0.509400000000    -0.346715   
O        O      0.927900000000     0.175900000000     0.105300000000    -0.346715   
O        O      0.079000000000     0.301600000000     0.009400000000    -0.346715   
O        O      0.427900000000     0.324100000000     0.894700000000    -0.346715   
O        O      0.579000000000     0.198400000000     0.990600000000    -0.346715   
O        O      0.072100000000     0.675900000000     0.394700000000    -0.346715   
O        O      0.921000000000     0.801600000000     0.490600000000    -0.346715   


