data_ATAFIK_original

_audit_creation_method RASPA-1.0
_audit_creation_date 2022-1-30
_audit_author_name 'Felipe Lopes de Oliveira <felipe.lopes.oliveira@ibm.com>'

_cell_length_a    11.8105
_cell_length_b    18.7775
_cell_length_c    18.7775
_cell_angle_alpha 90
_cell_angle_beta  90
_cell_angle_gamma 90
_cell_volume      4164.32

_symmetry_cell_setting          triclinic
_symmetry_space_group_name_Hall 'P 1'
_symmetry_space_group_name_H-M  'P 1'
_symmetry_Int_Tables_number     1

_symmetry_equiv_pos_as_xyz 'x,y,z'

loop_
_atom_site_label
_atom_site_type_symbol
_atom_site_fract_x
_atom_site_fract_y
_atom_site_fract_z
_atom_site_charge
Zn       Zn     0.500040000000     0.147280000000     0.810090000000     0.47097    
Zn       Zn     0.321540000000     0.277390000000     0.773200000000     0.47097    
Zn       Zn     0.500040000000     0.852720000000     0.189910000000     0.47097    
Zn       Zn     0.321540000000     0.722610000000     0.226800000000     0.47097    
Zn       Zn     0.000040000000     0.189910000000     0.147280000000     0.47097    
Zn       Zn     0.821540000000     0.226800000000     0.277390000000     0.47097    
Zn       Zn     0.000040000000     0.810090000000     0.852720000000     0.47097    
Zn       Zn     0.821540000000     0.773200000000     0.722610000000     0.47097    
Zn       Zn     0.500040000000     0.647280000000     0.689910000000     0.47097    
Zn       Zn     0.321540000000     0.777390000000     0.726800000000     0.47097    
Zn       Zn     0.500040000000     0.352720000000     0.310090000000     0.47097    
Zn       Zn     0.321540000000     0.222610000000     0.273200000000     0.47097    
Zn       Zn     0.000040000000     0.689910000000     0.352720000000     0.47097    
Zn       Zn     0.821540000000     0.726800000000     0.222610000000     0.47097    
Zn       Zn     0.000040000000     0.310090000000     0.647280000000     0.47097    
Zn       Zn     0.821540000000     0.273200000000     0.777390000000     0.47097    
H        H      0.764700000000     0.230900000000     0.001100000000     0.0689525  
H        H      0.387800000000     0.273500000000     0.047500000000     0.0689525  
H        H      0.764700000000     0.769100000000     0.998900000000     0.0689525  
H        H      0.387800000000     0.726500000000     0.952500000000     0.0689525  
H        H      0.264700000000     0.998900000000     0.230900000000     0.0689525  
H        H      0.887800000000     0.952500000000     0.273500000000     0.0689525  
H        H      0.264700000000     0.001100000000     0.769100000000     0.0689525  
H        H      0.887800000000     0.047500000000     0.726500000000     0.0689525  
H        H      0.764700000000     0.730900000000     0.498900000000     0.0689525  
H        H      0.387800000000     0.773500000000     0.452500000000     0.0689525  
H        H      0.764700000000     0.269100000000     0.501100000000     0.0689525  
H        H      0.387800000000     0.226500000000     0.547500000000     0.0689525  
H        H      0.264700000000     0.498900000000     0.269100000000     0.0689525  
H        H      0.887800000000     0.452500000000     0.226500000000     0.0689525  
H        H      0.264700000000     0.501100000000     0.730900000000     0.0689525  
H        H      0.887800000000     0.547500000000     0.773500000000     0.0689525  
C        C      0.500400000000     0.260400000000     0.967600000000     0.113858   
C        C      0.615200000000     0.247000000000     0.953800000000     0.113858   
C        C      0.688400000000     0.238800000000     0.010400000000     0.113858   
C        C      0.652100000000     0.241800000000     0.081000000000     0.113858   
C        C      0.538100000000     0.256400000000     0.095600000000     0.113858   
C        C      0.463900000000     0.264800000000     0.038400000000     0.113858   
C        C      0.410300000000     0.269000000000     0.910900000000     0.113858   
C        C      0.670400000000     0.240700000000     0.881000000000     0.113858   
C        C      0.739900000000     0.226700000000     0.136900000000     0.113858   
C        C      0.488600000000     0.264200000000     0.169300000000     0.113858   
C        C      0.500400000000     0.739600000000     0.032400000000     0.113858   
C        C      0.615200000000     0.753000000000     0.046200000000     0.113858   
C        C      0.688400000000     0.761200000000     0.989600000000     0.113858   
C        C      0.652100000000     0.758200000000     0.919000000000     0.113858   
C        C      0.538100000000     0.743600000000     0.904400000000     0.113858   
C        C      0.463900000000     0.735200000000     0.961600000000     0.113858   
C        C      0.410300000000     0.731000000000     0.089100000000     0.113858   
C        C      0.670400000000     0.759300000000     0.119000000000     0.113858   
C        C      0.739900000000     0.773300000000     0.863100000000     0.113858   
C        C      0.488600000000     0.735800000000     0.830700000000     0.113858   
C        C      0.000400000000     0.032400000000     0.260400000000     0.113858   
C        C      0.115200000000     0.046200000000     0.247000000000     0.113858   
C        C      0.188400000000     0.989600000000     0.238800000000     0.113858   
C        C      0.152100000000     0.919000000000     0.241800000000     0.113858   
C        C      0.038100000000     0.904400000000     0.256400000000     0.113858   
C        C      0.963900000000     0.961600000000     0.264800000000     0.113858   
C        C      0.910300000000     0.089100000000     0.269000000000     0.113858   
C        C      0.170400000000     0.119000000000     0.240700000000     0.113858   
C        C      0.239900000000     0.863100000000     0.226700000000     0.113858   
C        C      0.988600000000     0.830700000000     0.264200000000     0.113858   
C        C      0.000400000000     0.967600000000     0.739600000000     0.113858   
C        C      0.115200000000     0.953800000000     0.753000000000     0.113858   
C        C      0.188400000000     0.010400000000     0.761200000000     0.113858   
C        C      0.152100000000     0.081000000000     0.758200000000     0.113858   
C        C      0.038100000000     0.095600000000     0.743600000000     0.113858   
C        C      0.963900000000     0.038400000000     0.735200000000     0.113858   
C        C      0.910300000000     0.910900000000     0.731000000000     0.113858   
C        C      0.170400000000     0.881000000000     0.759300000000     0.113858   
C        C      0.239900000000     0.136900000000     0.773300000000     0.113858   
C        C      0.988600000000     0.169300000000     0.735800000000     0.113858   
C        C      0.500400000000     0.760400000000     0.532400000000     0.113858   
C        C      0.615200000000     0.747000000000     0.546200000000     0.113858   
C        C      0.688400000000     0.738800000000     0.489600000000     0.113858   
C        C      0.652100000000     0.741800000000     0.419000000000     0.113858   
C        C      0.538100000000     0.756400000000     0.404400000000     0.113858   
C        C      0.463900000000     0.764800000000     0.461600000000     0.113858   
C        C      0.410300000000     0.769000000000     0.589100000000     0.113858   
C        C      0.670400000000     0.740700000000     0.619000000000     0.113858   
C        C      0.739900000000     0.726700000000     0.363100000000     0.113858   
C        C      0.488600000000     0.764200000000     0.330700000000     0.113858   
C        C      0.500400000000     0.239600000000     0.467600000000     0.113858   
C        C      0.615200000000     0.253000000000     0.453800000000     0.113858   
C        C      0.688400000000     0.261200000000     0.510400000000     0.113858   
C        C      0.652100000000     0.258200000000     0.581000000000     0.113858   
C        C      0.538100000000     0.243600000000     0.595600000000     0.113858   
C        C      0.463900000000     0.235200000000     0.538400000000     0.113858   
C        C      0.410300000000     0.231000000000     0.410900000000     0.113858   
C        C      0.670400000000     0.259300000000     0.381000000000     0.113858   
C        C      0.739900000000     0.273300000000     0.636900000000     0.113858   
C        C      0.488600000000     0.235800000000     0.669300000000     0.113858   
C        C      0.000400000000     0.532400000000     0.239600000000     0.113858   
C        C      0.115200000000     0.546200000000     0.253000000000     0.113858   
C        C      0.188400000000     0.489600000000     0.261200000000     0.113858   
C        C      0.152100000000     0.419000000000     0.258200000000     0.113858   
C        C      0.038100000000     0.404400000000     0.243600000000     0.113858   
C        C      0.963900000000     0.461600000000     0.235200000000     0.113858   
C        C      0.910300000000     0.589100000000     0.231000000000     0.113858   
C        C      0.170400000000     0.619000000000     0.259300000000     0.113858   
C        C      0.239900000000     0.363100000000     0.273300000000     0.113858   
C        C      0.988600000000     0.330700000000     0.235800000000     0.113858   
C        C      0.000400000000     0.467600000000     0.760400000000     0.113858   
C        C      0.115200000000     0.453800000000     0.747000000000     0.113858   
C        C      0.188400000000     0.510400000000     0.738800000000     0.113858   
C        C      0.152100000000     0.581000000000     0.741800000000     0.113858   
C        C      0.038100000000     0.595600000000     0.756400000000     0.113858   
C        C      0.963900000000     0.538400000000     0.764800000000     0.113858   
C        C      0.910300000000     0.410900000000     0.769000000000     0.113858   
C        C      0.170400000000     0.381000000000     0.740700000000     0.113858   
C        C      0.239900000000     0.636900000000     0.726700000000     0.113858   
C        C      0.988600000000     0.669300000000     0.764200000000     0.113858   
O        O      0.439100000000     0.255800000000     0.846200000000    -0.277304   
O        O      0.316000000000     0.285200000000     0.927500000000    -0.277304   
O        O      0.650300000000     0.191500000000     0.839400000000    -0.277304   
O        O      0.747700000000     0.286400000000     0.869800000000    -0.277304   
O        O      0.837500000000     0.212800000000     0.116000000000    -0.277304   
O        O      0.709400000000     0.226500000000     0.200300000000    -0.277304   
O        O      0.415900000000     0.217600000000     0.186400000000    -0.277304   
O        O      0.515400000000     0.316100000000     0.205500000000    -0.277304   
O        O      0.439100000000     0.744200000000     0.153800000000    -0.277304   
O        O      0.316000000000     0.714800000000     0.072500000000    -0.277304   
O        O      0.650300000000     0.808500000000     0.160600000000    -0.277304   
O        O      0.747700000000     0.713600000000     0.130200000000    -0.277304   
O        O      0.837500000000     0.787200000000     0.884000000000    -0.277304   
O        O      0.709400000000     0.773500000000     0.799700000000    -0.277304   
O        O      0.415900000000     0.782400000000     0.813600000000    -0.277304   
O        O      0.515400000000     0.683900000000     0.794500000000    -0.277304   
O        O      0.939100000000     0.153800000000     0.255800000000    -0.277304   
O        O      0.816000000000     0.072500000000     0.285200000000    -0.277304   
O        O      0.150300000000     0.160600000000     0.191500000000    -0.277304   
O        O      0.247700000000     0.130200000000     0.286400000000    -0.277304   
O        O      0.337500000000     0.884000000000     0.212800000000    -0.277304   
O        O      0.209400000000     0.799700000000     0.226500000000    -0.277304   
O        O      0.915900000000     0.813600000000     0.217600000000    -0.277304   
O        O      0.015400000000     0.794500000000     0.316100000000    -0.277304   
O        O      0.939100000000     0.846200000000     0.744200000000    -0.277304   
O        O      0.816000000000     0.927500000000     0.714800000000    -0.277304   
O        O      0.150300000000     0.839400000000     0.808500000000    -0.277304   
O        O      0.247700000000     0.869800000000     0.713600000000    -0.277304   
O        O      0.337500000000     0.116000000000     0.787200000000    -0.277304   
O        O      0.209400000000     0.200300000000     0.773500000000    -0.277304   
O        O      0.915900000000     0.186400000000     0.782400000000    -0.277304   
O        O      0.015400000000     0.205500000000     0.683900000000    -0.277304   
O        O      0.439100000000     0.755800000000     0.653800000000    -0.277304   
O        O      0.316000000000     0.785200000000     0.572500000000    -0.277304   
O        O      0.650300000000     0.691500000000     0.660600000000    -0.277304   
O        O      0.747700000000     0.786400000000     0.630200000000    -0.277304   
O        O      0.837500000000     0.712800000000     0.384000000000    -0.277304   
O        O      0.709400000000     0.726500000000     0.299700000000    -0.277304   
O        O      0.415900000000     0.717600000000     0.313600000000    -0.277304   
O        O      0.515400000000     0.816100000000     0.294500000000    -0.277304   
O        O      0.439100000000     0.244200000000     0.346200000000    -0.277304   
O        O      0.316000000000     0.214800000000     0.427500000000    -0.277304   
O        O      0.650300000000     0.308500000000     0.339400000000    -0.277304   
O        O      0.747700000000     0.213600000000     0.369800000000    -0.277304   
O        O      0.837500000000     0.287200000000     0.616000000000    -0.277304   
O        O      0.709400000000     0.273500000000     0.700300000000    -0.277304   
O        O      0.415900000000     0.282400000000     0.686400000000    -0.277304   
O        O      0.515400000000     0.183900000000     0.705500000000    -0.277304   
O        O      0.939100000000     0.653800000000     0.244200000000    -0.277304   
O        O      0.816000000000     0.572500000000     0.214800000000    -0.277304   
O        O      0.150300000000     0.660600000000     0.308500000000    -0.277304   
O        O      0.247700000000     0.630200000000     0.213600000000    -0.277304   
O        O      0.337500000000     0.384000000000     0.287200000000    -0.277304   
O        O      0.209400000000     0.299700000000     0.273500000000    -0.277304   
O        O      0.915900000000     0.313600000000     0.282400000000    -0.277304   
O        O      0.015400000000     0.294500000000     0.183900000000    -0.277304   
O        O      0.939100000000     0.346200000000     0.755800000000    -0.277304   
O        O      0.816000000000     0.427500000000     0.785200000000    -0.277304   
O        O      0.150300000000     0.339400000000     0.691500000000    -0.277304   
O        O      0.247700000000     0.369800000000     0.786400000000    -0.277304   
O        O      0.337500000000     0.616000000000     0.712800000000    -0.277304   
O        O      0.209400000000     0.700300000000     0.726500000000    -0.277304   
O        O      0.915900000000     0.686400000000     0.717600000000    -0.277304   
O        O      0.015400000000     0.705500000000     0.816100000000    -0.277304   


