data_ATOWOW_original

_audit_creation_method RASPA-1.0
_audit_creation_date 2022-1-29
_audit_author_name 'Felipe Lopes de Oliveira <felipe.lopes.oliveira@ibm.com>'

_cell_length_a    14.0599
_cell_length_b    14.0599
_cell_length_c    14.35
_cell_angle_alpha 60.9754
_cell_angle_beta  60.9754
_cell_angle_gamma 83.8911
_cell_volume      2137.86

_symmetry_cell_setting          triclinic
_symmetry_space_group_name_Hall 'P 1'
_symmetry_space_group_name_H-M  'P 1'
_symmetry_Int_Tables_number     1

_symmetry_equiv_pos_as_xyz 'x,y,z'

loop_
_atom_site_label
_atom_site_type_symbol
_atom_site_fract_x
_atom_site_fract_y
_atom_site_fract_z
_atom_site_charge
Zn       Zn     0.980250000000     0.980250000000     0.915710000000     0.453699   
Zn       Zn     0.019750000000     0.019750000000     0.084290000000     0.453699   
Zn       Zn     0.900490000000     0.099510000000     0.500000000000     0.453699   
Zn       Zn     0.099510000000     0.900490000000     0.500000000000     0.453699   
H        H      0.623000000000     0.935200000000     0.115700000000     0.177882   
H        H      0.433300000000     0.916700000000     0.239200000000     0.177882   
H        H      0.492400000000     0.036200000000     0.409900000000     0.177882   
H        H      0.679500000000     0.033500000000     0.302500000000     0.177882   
H        H      0.764200000000     0.066000000000     0.790500000000     0.177882   
H        H      0.854900000000     0.172100000000     0.692500000000     0.177882   
H        H      0.837300000000     0.102900000000     0.825900000000     0.177882   
H        H      0.275200000000     0.068600000000     0.492800000000     0.177882   
H        H      0.064800000000     0.377000000000     0.884300000000     0.177882   
H        H      0.083300000000     0.566700000000     0.760800000000     0.177882   
H        H      0.963800000000     0.507600000000     0.590100000000     0.177882   
H        H      0.966500000000     0.320500000000     0.697500000000     0.177882   
H        H      0.934000000000     0.235800000000     0.209500000000     0.177882   
H        H      0.827900000000     0.145100000000     0.307500000000     0.177882   
H        H      0.897100000000     0.162700000000     0.174100000000     0.177882   
H        H      0.931400000000     0.724800000000     0.507200000000     0.177882   
H        H      0.377000000000     0.064800000000     0.884300000000     0.177882   
H        H      0.566700000000     0.083300000000     0.760800000000     0.177882   
H        H      0.507600000000     0.963800000000     0.590100000000     0.177882   
H        H      0.320500000000     0.966500000000     0.697500000000     0.177882   
H        H      0.235800000000     0.934000000000     0.209500000000     0.177882   
H        H      0.145100000000     0.827900000000     0.307500000000     0.177882   
H        H      0.162700000000     0.897100000000     0.174100000000     0.177882   
H        H      0.724800000000     0.931400000000     0.507200000000     0.177882   
H        H      0.935200000000     0.623000000000     0.115700000000     0.177882   
H        H      0.916700000000     0.433300000000     0.239200000000     0.177882   
H        H      0.036200000000     0.492400000000     0.409900000000     0.177882   
H        H      0.033500000000     0.679500000000     0.302500000000     0.177882   
H        H      0.066000000000     0.764200000000     0.790500000000     0.177882   
H        H      0.172100000000     0.854900000000     0.692500000000     0.177882   
H        H      0.102900000000     0.837300000000     0.825900000000     0.177882   
H        H      0.068600000000     0.275200000000     0.492800000000     0.177882   
C        C      0.790800000000     0.987000000000     0.125700000000    -0.00231152 
C        C      0.669400000000     0.984600000000     0.198700000000    -0.00231152 
C        C      0.596600000000     0.952400000000     0.178000000000    -0.00231152 
C        C      0.482200000000     0.944800000000     0.249600000000    -0.00231152 
C        C      0.443400000000     0.978400000000     0.333400000000    -0.00231152 
C        C      0.517900000000     0.012900000000     0.352500000000    -0.00231152 
C        C      0.630800000000     0.013400000000     0.286200000000    -0.00231152 
C        C      0.320600000000     0.971400000000     0.410100000000    -0.00231152 
C        C      0.918500000000     0.031100000000     0.722800000000    -0.00231152 
C        C      0.836500000000     0.099100000000     0.761300000000    -0.00231152 
C        C      0.013000000000     0.209200000000     0.874300000000    -0.00231152 
C        C      0.015400000000     0.330600000000     0.801300000000    -0.00231152 
C        C      0.047600000000     0.403400000000     0.822000000000    -0.00231152 
C        C      0.055200000000     0.517800000000     0.750400000000    -0.00231152 
C        C      0.021600000000     0.556600000000     0.666600000000    -0.00231152 
C        C      0.987100000000     0.482100000000     0.647500000000    -0.00231152 
C        C      0.986600000000     0.369200000000     0.713800000000    -0.00231152 
C        C      0.028600000000     0.679400000000     0.589900000000    -0.00231152 
C        C      0.968900000000     0.081500000000     0.277200000000    -0.00231152 
C        C      0.900900000000     0.163500000000     0.238700000000    -0.00231152 
C        C      0.209200000000     0.013000000000     0.874300000000    -0.00231152 
C        C      0.330600000000     0.015400000000     0.801300000000    -0.00231152 
C        C      0.403400000000     0.047600000000     0.822000000000    -0.00231152 
C        C      0.517800000000     0.055200000000     0.750400000000    -0.00231152 
C        C      0.556600000000     0.021600000000     0.666600000000    -0.00231152 
C        C      0.482100000000     0.987100000000     0.647500000000    -0.00231152 
C        C      0.369200000000     0.986600000000     0.713800000000    -0.00231152 
C        C      0.679400000000     0.028600000000     0.589900000000    -0.00231152 
C        C      0.081500000000     0.968900000000     0.277200000000    -0.00231152 
C        C      0.163500000000     0.900900000000     0.238700000000    -0.00231152 
C        C      0.987000000000     0.790800000000     0.125700000000    -0.00231152 
C        C      0.984600000000     0.669400000000     0.198700000000    -0.00231152 
C        C      0.952400000000     0.596600000000     0.178000000000    -0.00231152 
C        C      0.944800000000     0.482200000000     0.249600000000    -0.00231152 
C        C      0.978400000000     0.443400000000     0.333400000000    -0.00231152 
C        C      0.012900000000     0.517900000000     0.352500000000    -0.00231152 
C        C      0.013400000000     0.630800000000     0.286200000000    -0.00231152 
C        C      0.971400000000     0.320600000000     0.410100000000    -0.00231152 
C        C      0.031100000000     0.918500000000     0.722800000000    -0.00231152 
C        C      0.099100000000     0.836500000000     0.761300000000    -0.00231152 
N        N      0.948600000000     0.022800000000     0.625300000000    -0.217033   
N        N      0.977200000000     0.051400000000     0.374700000000    -0.217033   
N        N      0.051400000000     0.977200000000     0.374700000000    -0.217033   
N        N      0.022800000000     0.948600000000     0.625300000000    -0.217033   
N        N      0.969800000000     0.969800000000     0.784200000000    -0.217033   
N        N      0.030200000000     0.030200000000     0.215800000000    -0.217033   
O        O      0.821400000000     0.973200000000     0.035000000000    -0.382022   
O        O      0.851200000000     0.002600000000     0.158000000000    -0.382022   
O        O      0.257900000000     0.927900000000     0.401500000000    -0.382022   
O        O      0.289000000000     0.016600000000     0.474600000000    -0.382022   
O        O      0.026800000000     0.178600000000     0.965000000000    -0.382022   
O        O      0.997400000000     0.148800000000     0.842000000000    -0.382022   
O        O      0.072100000000     0.742100000000     0.598500000000    -0.382022   
O        O      0.983400000000     0.711000000000     0.525400000000    -0.382022   
O        O      0.178600000000     0.026800000000     0.965000000000    -0.382022   
O        O      0.148800000000     0.997400000000     0.842000000000    -0.382022   
O        O      0.742100000000     0.072100000000     0.598500000000    -0.382022   
O        O      0.711000000000     0.983400000000     0.525400000000    -0.382022   
O        O      0.973200000000     0.821400000000     0.035000000000    -0.382022   
O        O      0.002600000000     0.851200000000     0.158000000000    -0.382022   
O        O      0.927900000000     0.257900000000     0.401500000000    -0.382022   
O        O      0.016600000000     0.289000000000     0.474600000000    -0.382022   


