data_ATOWIQ_original

_audit_creation_method RASPA-1.0
_audit_creation_date 2022-1-29
_audit_author_name 'Felipe Lopes de Oliveira <felipe.lopes.oliveira@ibm.com>'

_cell_length_a    13.8224
_cell_length_b    13.8224
_cell_length_c    14.376
_cell_angle_alpha 61.9182
_cell_angle_beta  61.9182
_cell_angle_gamma 79.7099
_cell_volume      2134.77

_symmetry_cell_setting          triclinic
_symmetry_space_group_name_Hall 'P 1'
_symmetry_space_group_name_H-M  'P 1'
_symmetry_Int_Tables_number     1

_symmetry_equiv_pos_as_xyz 'x,y,z'

loop_
_atom_site_label
_atom_site_type_symbol
_atom_site_fract_x
_atom_site_fract_y
_atom_site_fract_z
_atom_site_charge
Zn       Zn     0.104390000000     0.895610000000     0.500000000000     0.450442   
Zn       Zn     0.895610000000     0.104390000000     0.500000000000     0.450442   
Zn       Zn     0.019340000000     0.019340000000     0.084970000000     0.450442   
Zn       Zn     0.980660000000     0.980660000000     0.915030000000     0.450442   
H        H      0.925900000000     0.742500000000     0.541000000000     0.177886   
H        H      0.069300000000     0.377700000000     0.884700000000     0.177886   
H        H      0.074100000000     0.563900000000     0.771500000000     0.177886   
H        H      0.958400000000     0.511000000000     0.596300000000     0.177886   
H        H      0.959500000000     0.325900000000     0.702200000000     0.177886   
H        H      0.184400000000     0.850800000000     0.693600000000     0.177886   
H        H      0.111600000000     0.829200000000     0.825000000000     0.177886   
H        H      0.086400000000     0.762200000000     0.775500000000     0.177886   
H        H      0.257500000000     0.074100000000     0.459000000000     0.177886   
H        H      0.622300000000     0.930700000000     0.115300000000     0.177886   
H        H      0.436100000000     0.925900000000     0.228500000000     0.177886   
H        H      0.489000000000     0.041600000000     0.403700000000     0.177886   
H        H      0.674100000000     0.040500000000     0.297800000000     0.177886   
H        H      0.149200000000     0.815600000000     0.306400000000     0.177886   
H        H      0.170800000000     0.888400000000     0.175000000000     0.177886   
H        H      0.237800000000     0.913600000000     0.224500000000     0.177886   
H        H      0.074100000000     0.257500000000     0.459000000000     0.177886   
H        H      0.930700000000     0.622300000000     0.115300000000     0.177886   
H        H      0.925900000000     0.436100000000     0.228500000000     0.177886   
H        H      0.041600000000     0.489000000000     0.403700000000     0.177886   
H        H      0.040500000000     0.674100000000     0.297800000000     0.177886   
H        H      0.815600000000     0.149200000000     0.306400000000     0.177886   
H        H      0.888400000000     0.170800000000     0.175000000000     0.177886   
H        H      0.913600000000     0.237800000000     0.224500000000     0.177886   
H        H      0.742500000000     0.925900000000     0.541000000000     0.177886   
H        H      0.377700000000     0.069300000000     0.884700000000     0.177886   
H        H      0.563900000000     0.074100000000     0.771500000000     0.177886   
H        H      0.511000000000     0.958400000000     0.596300000000     0.177886   
H        H      0.325900000000     0.959500000000     0.702200000000     0.177886   
H        H      0.850800000000     0.184400000000     0.693600000000     0.177886   
H        H      0.829200000000     0.111600000000     0.825000000000     0.177886   
H        H      0.762200000000     0.086400000000     0.775500000000     0.177886   
C        C      0.007500000000     0.209100000000     0.882500000000    -0.000319983
C        C      0.014400000000     0.331800000000     0.806700000000    -0.000319983
C        C      0.048500000000     0.403500000000     0.824500000000    -0.000319983
C        C      0.053600000000     0.516000000000     0.754400000000    -0.000319983
C        C      0.029800000000     0.557000000000     0.663800000000    -0.000319983
C        C      0.986100000000     0.484100000000     0.651100000000    -0.000319983
C        C      0.983000000000     0.373600000000     0.717300000000    -0.000319983
C        C      0.038500000000     0.678300000000     0.585100000000    -0.000319983
C        C      0.036900000000     0.917300000000     0.721000000000    -0.000319983
C        C      0.111400000000     0.832400000000     0.756900000000    -0.000319983
C        C      0.790900000000     0.992500000000     0.117500000000    -0.000319983
C        C      0.668200000000     0.985600000000     0.193300000000    -0.000319983
C        C      0.596500000000     0.951500000000     0.175500000000    -0.000319983
C        C      0.484000000000     0.946400000000     0.245600000000    -0.000319983
C        C      0.443000000000     0.970200000000     0.336200000000    -0.000319983
C        C      0.515900000000     0.013900000000     0.348900000000    -0.000319983
C        C      0.626400000000     0.017000000000     0.282700000000    -0.000319983
C        C      0.321700000000     0.961500000000     0.414900000000    -0.000319983
C        C      0.082700000000     0.963100000000     0.279000000000    -0.000319983
C        C      0.167600000000     0.888600000000     0.243100000000    -0.000319983
C        C      0.992500000000     0.790900000000     0.117500000000    -0.000319983
C        C      0.985600000000     0.668200000000     0.193300000000    -0.000319983
C        C      0.951500000000     0.596500000000     0.175500000000    -0.000319983
C        C      0.946400000000     0.484000000000     0.245600000000    -0.000319983
C        C      0.970200000000     0.443000000000     0.336200000000    -0.000319983
C        C      0.013900000000     0.515900000000     0.348900000000    -0.000319983
C        C      0.017000000000     0.626400000000     0.282700000000    -0.000319983
C        C      0.961500000000     0.321700000000     0.414900000000    -0.000319983
C        C      0.963100000000     0.082700000000     0.279000000000    -0.000319983
C        C      0.888600000000     0.167600000000     0.243100000000    -0.000319983
C        C      0.209100000000     0.007500000000     0.882500000000    -0.000319983
C        C      0.331800000000     0.014400000000     0.806700000000    -0.000319983
C        C      0.403500000000     0.048500000000     0.824500000000    -0.000319983
C        C      0.516000000000     0.053600000000     0.754400000000    -0.000319983
C        C      0.557000000000     0.029800000000     0.663800000000    -0.000319983
C        C      0.484100000000     0.986100000000     0.651100000000    -0.000319983
C        C      0.373600000000     0.983000000000     0.717300000000    -0.000319983
C        C      0.678300000000     0.038500000000     0.585100000000    -0.000319983
C        C      0.917300000000     0.036900000000     0.721000000000    -0.000319983
C        C      0.832400000000     0.111400000000     0.756900000000    -0.000319983
N        N      0.025000000000     0.949000000000     0.624100000000    -0.214037   
N        N      0.051000000000     0.975000000000     0.375900000000    -0.214037   
N        N      0.975000000000     0.051000000000     0.375900000000    -0.214037   
N        N      0.949000000000     0.025000000000     0.624100000000    -0.214037   
N        N      0.972200000000     0.972200000000     0.782300000000    -0.214037   
N        N      0.027800000000     0.027800000000     0.217700000000    -0.214037   
O        O      0.022100000000     0.177500000000     0.971800000000    -0.387318   
O        O      0.987900000000     0.147700000000     0.850900000000    -0.387318   
O        O      0.082700000000     0.736700000000     0.592400000000    -0.387318   
O        O      0.989100000000     0.714300000000     0.523200000000    -0.387318   
O        O      0.822500000000     0.977900000000     0.028200000000    -0.387318   
O        O      0.852300000000     0.012100000000     0.149100000000    -0.387318   
O        O      0.263300000000     0.917300000000     0.407600000000    -0.387318   
O        O      0.285700000000     0.010900000000     0.476800000000    -0.387318   
O        O      0.977900000000     0.822500000000     0.028200000000    -0.387318   
O        O      0.012100000000     0.852300000000     0.149100000000    -0.387318   
O        O      0.917300000000     0.263300000000     0.407600000000    -0.387318   
O        O      0.010900000000     0.285700000000     0.476800000000    -0.387318   
O        O      0.177500000000     0.022100000000     0.971800000000    -0.387318   
O        O      0.147700000000     0.987900000000     0.850900000000    -0.387318   
O        O      0.736700000000     0.082700000000     0.592400000000    -0.387318   
O        O      0.714300000000     0.989100000000     0.523200000000    -0.387318   


