data_AYUWUM_original

_audit_creation_method RASPA-1.0
_audit_creation_date 2022-1-29
_audit_author_name 'Felipe Lopes de Oliveira <felipe.lopes.oliveira@ibm.com>'

_cell_length_a    9.998
_cell_length_b    16.216
_cell_length_c    16.663
_cell_angle_alpha 94.899
_cell_angle_beta  102.41
_cell_angle_gamma 96.101
_cell_volume      2607.12

_symmetry_cell_setting          triclinic
_symmetry_space_group_name_Hall 'P 1'
_symmetry_space_group_name_H-M  'P 1'
_symmetry_Int_Tables_number     1

_symmetry_equiv_pos_as_xyz 'x,y,z'

loop_
_atom_site_label
_atom_site_type_symbol
_atom_site_fract_x
_atom_site_fract_y
_atom_site_fract_z
_atom_site_charge
Na       Na     0.110600000000     0.946200000000     0.452500000000     2.23684    
Na       Na     0.472700000000     0.104000000000     0.541800000000     2.23684    
Na       Na     0.252000000000     0.156100000000     0.863200000000     2.23684    
Na       Na     0.889400000000     0.053800000000     0.547500000000     2.23684    
Na       Na     0.527300000000     0.896000000000     0.458200000000     2.23684    
Na       Na     0.748000000000     0.843900000000     0.136800000000     2.23684    
H        H      0.717000000000     0.501600000000     0.156700000000     0.185463   
H        H      0.344200000000     0.585500000000     0.153200000000     0.185463   
H        H      0.941500000000     0.246100000000     0.233900000000     0.185463   
H        H      0.118400000000     0.483400000000     0.205800000000     0.185463   
H        H      0.288700000000     0.948900000000     0.117100000000     0.185463   
H        H      0.959900000000     0.042200000000     0.182500000000     0.185463   
H        H      0.504200000000     0.043300000000     0.170900000000     0.185463   
H        H      0.713300000000     0.287400000000     0.208100000000     0.185463   
H        H      0.936100000000     0.507600000000     0.281400000000     0.185463   
H        H      0.838900000000     0.438500000000     0.306800000000     0.185463   
H        H      0.954200000000     0.502300000000     0.387300000000     0.185463   
H        H      0.165800000000     0.492000000000     0.413800000000     0.185463   
H        H      0.249200000000     0.427900000000     0.380900000000     0.185463   
H        H      0.206600000000     0.501000000000     0.330900000000     0.185463   
H        H      0.921300000000     0.313100000000     0.359300000000     0.185463   
H        H      0.026200000000     0.376200000000     0.440500000000     0.185463   
H        H      0.076900000000     0.302300000000     0.378500000000     0.185463   
H        H      0.843800000000     0.257300000000     0.905000000000     0.185463   
H        H      0.879100000000     0.357600000000     0.938400000000     0.185463   
H        H      0.126200000000     0.334100000000     0.811700000000     0.185463   
H        H      0.262100000000     0.352700000000     0.980700000000     0.185463   
H        H      0.070400000000     0.187500000000     0.985700000000     0.185463   
H        H      0.481300000000     0.260600000000     0.958900000000     0.185463   
H        H      0.894700000000     0.881800000000     0.547900000000     0.185463   
H        H      0.036700000000     0.913900000000     0.611900000000     0.185463   
H        H      0.290000000000     0.002100000000     0.602900000000     0.185463   
H        H      0.223300000000     0.066100000000     0.585700000000     0.185463   
H        H      0.357300000000     0.005200000000     0.375300000000     0.185463   
H        H      0.471000000000     0.049100000000     0.373900000000     0.185463   
H        H      0.262600000000     0.802700000000     0.447000000000     0.185463   
H        H      0.293800000000     0.820700000000     0.530200000000     0.185463   
H        H      0.283000000000     0.498400000000     0.843300000000     0.185463   
H        H      0.655800000000     0.414500000000     0.846800000000     0.185463   
H        H      0.058500000000     0.753900000000     0.766100000000     0.185463   
H        H      0.881600000000     0.516600000000     0.794200000000     0.185463   
H        H      0.711300000000     0.051100000000     0.882900000000     0.185463   
H        H      0.040100000000     0.957800000000     0.817500000000     0.185463   
H        H      0.495800000000     0.956700000000     0.829100000000     0.185463   
H        H      0.286700000000     0.712600000000     0.791900000000     0.185463   
H        H      0.063900000000     0.492400000000     0.718600000000     0.185463   
H        H      0.161100000000     0.561500000000     0.693200000000     0.185463   
H        H      0.045800000000     0.497700000000     0.612700000000     0.185463   
H        H      0.834200000000     0.508000000000     0.586200000000     0.185463   
H        H      0.750800000000     0.572100000000     0.619100000000     0.185463   
H        H      0.793400000000     0.499000000000     0.669100000000     0.185463   
H        H      0.078700000000     0.686900000000     0.640700000000     0.185463   
H        H      0.973800000000     0.623800000000     0.559500000000     0.185463   
H        H      0.923100000000     0.697700000000     0.621500000000     0.185463   
H        H      0.156200000000     0.742700000000     0.095000000000     0.185463   
H        H      0.120900000000     0.642400000000     0.061600000000     0.185463   
H        H      0.873800000000     0.665900000000     0.188300000000     0.185463   
H        H      0.737900000000     0.647300000000     0.019300000000     0.185463   
H        H      0.929600000000     0.812500000000     0.014300000000     0.185463   
H        H      0.518700000000     0.739400000000     0.041100000000     0.185463   
H        H      0.105300000000     0.118200000000     0.452100000000     0.185463   
H        H      0.963300000000     0.086100000000     0.388100000000     0.185463   
H        H      0.710000000000     0.997900000000     0.397100000000     0.185463   
H        H      0.776700000000     0.933900000000     0.414300000000     0.185463   
H        H      0.642700000000     0.994800000000     0.624700000000     0.185463   
H        H      0.529000000000     0.950900000000     0.626100000000     0.185463   
H        H      0.737400000000     0.197300000000     0.553000000000     0.185463   
H        H      0.706200000000     0.179300000000     0.469800000000     0.185463   
C        C      0.406100000000     0.416400000000     0.057900000000    -0.0699055  
C        C      0.549100000000     0.425200000000     0.088000000000    -0.0699055  
C        C      0.616100000000     0.496400000000     0.140400000000    -0.0699055  
C        C      0.539600000000     0.557700000000     0.163000000000    -0.0699055  
C        C      0.398000000000     0.548800000000     0.134600000000    -0.0699055  
C        C      0.330300000000     0.478600000000     0.081300000000    -0.0699055  
C        C      0.030000000000     0.319600000000     0.070100000000    -0.0699055  
C        C      0.982700000000     0.265100000000     0.121200000000    -0.0699055  
C        C      0.990800000000     0.292600000000     0.203900000000    -0.0699055  
C        C      0.039900000000     0.375600000000     0.235900000000    -0.0699055  
C        C      0.085600000000     0.428700000000     0.183500000000    -0.0699055  
C        C      0.084200000000     0.401400000000     0.102100000000    -0.0699055  
C        C      0.126900000000     0.094900000000     0.045600000000    -0.0699055  
C        C      0.222500000000     0.037700000000     0.057900000000    -0.0699055  
C        C      0.214800000000     0.979800000000     0.114600000000    -0.0699055  
C        C      0.115800000000     0.981100000000     0.160700000000    -0.0699055  
C        C      0.023300000000     0.039900000000     0.151400000000    -0.0699055  
C        C      0.028300000000     0.096400000000     0.094600000000    -0.0699055  
C        C      0.512000000000     0.194400000000     0.037600000000    -0.0699055  
C        C      0.475300000000     0.118600000000     0.066300000000    -0.0699055  
C        C      0.532500000000     0.104600000000     0.146800000000    -0.0699055  
C        C      0.622600000000     0.166700000000     0.199400000000    -0.0699055  
C        C      0.654700000000     0.243700000000     0.172700000000    -0.0699055  
C        C      0.599900000000     0.257400000000     0.091800000000    -0.0699055  
C        C      0.920300000000     0.308800000000     0.926300000000    -0.0699055  
C        C      0.972000000000     0.329300000000     0.851300000000    -0.0699055  
C        C      0.040700000000     0.410000000000     0.324600000000    -0.0699055  
C        C      0.929600000000     0.467900000000     0.320800000000    -0.0699055  
C        C      0.178000000000     0.461800000000     0.366300000000    -0.0699055  
C        C      0.012000000000     0.342400000000     0.378100000000    -0.0699055  
C        C      0.593900000000     0.583600000000     0.942100000000    -0.0699055  
C        C      0.450900000000     0.574800000000     0.912000000000    -0.0699055  
C        C      0.383900000000     0.503600000000     0.859600000000    -0.0699055  
C        C      0.460400000000     0.442300000000     0.837000000000    -0.0699055  
C        C      0.602000000000     0.451200000000     0.865400000000    -0.0699055  
C        C      0.669700000000     0.521400000000     0.918700000000    -0.0699055  
C        C      0.970000000000     0.680400000000     0.929900000000    -0.0699055  
C        C      0.017300000000     0.734900000000     0.878800000000    -0.0699055  
C        C      0.009200000000     0.707400000000     0.796100000000    -0.0699055  
C        C      0.960100000000     0.624400000000     0.764100000000    -0.0699055  
C        C      0.914400000000     0.571300000000     0.816500000000    -0.0699055  
C        C      0.915800000000     0.598600000000     0.897900000000    -0.0699055  
C        C      0.873100000000     0.905100000000     0.954400000000    -0.0699055  
C        C      0.777500000000     0.962300000000     0.942100000000    -0.0699055  
C        C      0.785200000000     0.020200000000     0.885400000000    -0.0699055  
C        C      0.884200000000     0.018900000000     0.839300000000    -0.0699055  
C        C      0.976700000000     0.960100000000     0.848600000000    -0.0699055  
C        C      0.971700000000     0.903600000000     0.905400000000    -0.0699055  
C        C      0.488000000000     0.805600000000     0.962400000000    -0.0699055  
C        C      0.524700000000     0.881400000000     0.933700000000    -0.0699055  
C        C      0.467500000000     0.895400000000     0.853200000000    -0.0699055  
C        C      0.377400000000     0.833300000000     0.800600000000    -0.0699055  
C        C      0.345300000000     0.756300000000     0.827300000000    -0.0699055  
C        C      0.400100000000     0.742600000000     0.908200000000    -0.0699055  
C        C      0.079700000000     0.691200000000     0.073700000000    -0.0699055  
C        C      0.028000000000     0.670700000000     0.148700000000    -0.0699055  
C        C      0.959300000000     0.590000000000     0.675400000000    -0.0699055  
C        C      0.070400000000     0.532100000000     0.679200000000    -0.0699055  
C        C      0.822000000000     0.538200000000     0.633700000000    -0.0699055  
C        C      0.988000000000     0.657600000000     0.621900000000    -0.0699055  
S        S      0.150800000000     0.470490000000     0.037550000000     0.259394   
S        S      0.896700000000     0.163520000000     0.076650000000     0.259394   
S        S      0.353900000000     0.038060000000     0.000840000000     0.259394   
S        S      0.653100000000     0.352810000000     0.054190000000     0.259394   
S        S      0.109000000000     0.908790000000     0.234850000000     0.259394   
S        S      0.703000000000     0.146300000000     0.300270000000     0.259394   
S        S      0.623300000000     0.650320000000     0.226910000000     0.259394   
S        S      0.849200000000     0.529510000000     0.962450000000     0.259394   
S        S      0.103300000000     0.836480000000     0.923350000000     0.259394   
S        S      0.646100000000     0.961940000000     0.999160000000     0.259394   
S        S      0.346900000000     0.647190000000     0.945810000000     0.259394   
S        S      0.891000000000     0.091210000000     0.765150000000     0.259394   
S        S      0.297000000000     0.853700000000     0.699730000000     0.259394   
S        S      0.376700000000     0.349680000000     0.773090000000     0.259394   
O        O      0.346300000000     0.347600000000     0.006800000000    -0.640972   
O        O      0.031900000000     0.291000000000     0.989900000000    -0.640972   
O        O      0.137600000000     0.148000000000     0.988500000000    -0.640972   
O        O      0.461900000000     0.202500000000     0.956900000000    -0.640972   
O        O      0.898100000000     0.354200000000     0.793600000000    -0.640972   
O        O      0.101500000000     0.317400000000     0.855500000000    -0.640972   
O        O      0.963800000000     0.875600000000     0.221500000000    -0.640972   
O        O      0.160200000000     0.955500000000     0.316500000000    -0.640972   
O        O      0.194700000000     0.846300000000     0.216900000000    -0.640972   
O        O      0.625200000000     0.068300000000     0.313400000000    -0.640972   
O        O      0.689000000000     0.215700000000     0.356400000000    -0.640972   
O        O      0.844400000000     0.135600000000     0.298300000000    -0.640972   
O        O      0.766200000000     0.634700000000     0.257200000000    -0.640972   
O        O      0.550800000000     0.661500000000     0.292200000000    -0.640972   
O        O      0.615200000000     0.717000000000     0.174400000000    -0.640972   
O        O      0.975800000000     0.918200000000     0.562200000000    -0.640972   
O        O      0.264900000000     0.031700000000     0.564300000000    -0.640972   
O        O      0.430200000000     0.022900000000     0.407300000000    -0.640972   
O        O      0.292200000000     0.848000000000     0.479900000000    -0.640972   
O        O      0.653700000000     0.652400000000     0.993200000000    -0.640972   
O        O      0.968100000000     0.709000000000     0.010100000000    -0.640972   
O        O      0.862400000000     0.852000000000     0.011500000000    -0.640972   
O        O      0.538100000000     0.797500000000     0.043100000000    -0.640972   
O        O      0.101900000000     0.645800000000     0.206400000000    -0.640972   
O        O      0.898500000000     0.682600000000     0.144500000000    -0.640972   
O        O      0.036200000000     0.124400000000     0.778500000000    -0.640972   
O        O      0.839800000000     0.044500000000     0.683500000000    -0.640972   
O        O      0.805300000000     0.153700000000     0.783100000000    -0.640972   
O        O      0.374800000000     0.931700000000     0.686600000000    -0.640972   
O        O      0.311000000000     0.784300000000     0.643600000000    -0.640972   
O        O      0.155600000000     0.864400000000     0.701700000000    -0.640972   
O        O      0.233800000000     0.365300000000     0.742800000000    -0.640972   
O        O      0.449200000000     0.338500000000     0.707800000000    -0.640972   
O        O      0.384800000000     0.283000000000     0.825600000000    -0.640972   
O        O      0.024200000000     0.081800000000     0.437800000000    -0.640972   
O        O      0.735100000000     0.968300000000     0.435700000000    -0.640972   
O        O      0.569800000000     0.977100000000     0.592700000000    -0.640972   
O        O      0.707800000000     0.152000000000     0.520100000000    -0.640972   


