data_BARZUR_original

_audit_creation_method RASPA-1.0
_audit_creation_date 2022-1-28
_audit_author_name 'Felipe Lopes de Oliveira <felipe.lopes.oliveira@ibm.com>'

_cell_length_a    12.403
_cell_length_b    15.729
_cell_length_c    15.729
_cell_angle_alpha 120
_cell_angle_beta  90
_cell_angle_gamma 90
_cell_volume      2657.42

_symmetry_cell_setting          triclinic
_symmetry_space_group_name_Hall 'P 1'
_symmetry_space_group_name_H-M  'P 1'
_symmetry_Int_Tables_number     1

_symmetry_equiv_pos_as_xyz 'x,y,z'

loop_
_atom_site_label
_atom_site_type_symbol
_atom_site_fract_x
_atom_site_fract_y
_atom_site_fract_z
_atom_site_charge
Zn       Zn     0.833330000000     0.000000000000     0.578770000000     0.291331   
Zn       Zn     0.500000000000     0.578770000000     0.000000000000     0.291331   
Zn       Zn     0.166670000000     0.421230000000     0.421230000000     0.291331   
H        H      0.843700000000     0.817700000000     0.367500000000     0.0895309  
H        H      0.023300000000     0.053500000000     0.472500000000     0.0895309  
H        H      0.220500000000     0.058600000000     0.251100000000     0.0895309  
H        H      0.163800000000     0.958000000000     0.182400000000     0.0895309  
H        H      0.232600000000     0.971500000000     0.272000000000     0.0895309  
H        H      0.184300000000     0.195300000000     0.327300000000     0.0895309  
H        H      0.934400000000     0.371500000000     0.429400000000     0.0895309  
H        H      0.702000000000     0.284800000000     0.351800000000     0.0895309  
H        H      0.767200000000     0.372800000000     0.434400000000     0.0895309  
H        H      0.666000000000     0.331600000000     0.461800000000     0.0895309  
H        H      0.510370000000     0.549800000000     0.182300000000     0.0895309  
H        H      0.689970000000     0.419000000000     0.946500000000     0.0895309  
H        H      0.887170000000     0.192500000000     0.941400000000     0.0895309  
H        H      0.830470000000     0.224400000000     0.042000000000     0.0895309  
H        H      0.899270000000     0.300500000000     0.028500000000     0.0895309  
H        H      0.850970000000     0.132000000000     0.804700000000     0.0895309  
H        H      0.601070000000     0.057900000000     0.628500000000     0.0895309  
H        H      0.368670000000     0.067000000000     0.715200000000     0.0895309  
H        H      0.433870000000     0.061600000000     0.627200000000     0.0895309  
H        H      0.332670000000     0.130200000000     0.668400000000     0.0895309  
H        H      0.177030000000     0.632500000000     0.450200000000     0.0895309  
H        H      0.356630000000     0.527500000000     0.581000000000     0.0895309  
H        H      0.553830000000     0.748900000000     0.807500000000     0.0895309  
H        H      0.497130000000     0.817600000000     0.775600000000     0.0895309  
H        H      0.565930000000     0.728000000000     0.699500000000     0.0895309  
H        H      0.517630000000     0.672700000000     0.868000000000     0.0895309  
H        H      0.267730000000     0.570600000000     0.942100000000     0.0895309  
H        H      0.035330000000     0.648200000000     0.933000000000     0.0895309  
H        H      0.100530000000     0.565600000000     0.938400000000     0.0895309  
H        H      0.999330000000     0.538200000000     0.869800000000     0.0895309  
H        H      0.156300000000     0.450200000000     0.632500000000     0.0895309  
H        H      0.976700000000     0.581000000000     0.527500000000     0.0895309  
H        H      0.779500000000     0.807500000000     0.748900000000     0.0895309  
H        H      0.836200000000     0.775600000000     0.817600000000     0.0895309  
H        H      0.767400000000     0.699500000000     0.728000000000     0.0895309  
H        H      0.815700000000     0.868000000000     0.672700000000     0.0895309  
H        H      0.065600000000     0.942100000000     0.570600000000     0.0895309  
H        H      0.298000000000     0.933000000000     0.648200000000     0.0895309  
H        H      0.232800000000     0.938400000000     0.565600000000     0.0895309  
H        H      0.334000000000     0.869800000000     0.538200000000     0.0895309  
H        H      0.489630000000     0.367500000000     0.817700000000     0.0895309  
H        H      0.310030000000     0.472500000000     0.053500000000     0.0895309  
H        H      0.112830000000     0.251100000000     0.058600000000     0.0895309  
H        H      0.169530000000     0.182400000000     0.958000000000     0.0895309  
H        H      0.100730000000     0.272000000000     0.971500000000     0.0895309  
H        H      0.149030000000     0.327300000000     0.195300000000     0.0895309  
H        H      0.398930000000     0.429400000000     0.371500000000     0.0895309  
H        H      0.631330000000     0.351800000000     0.284800000000     0.0895309  
H        H      0.566130000000     0.434400000000     0.372800000000     0.0895309  
H        H      0.667330000000     0.461800000000     0.331600000000     0.0895309  
H        H      0.822970000000     0.182300000000     0.549800000000     0.0895309  
H        H      0.643370000000     0.946500000000     0.419000000000     0.0895309  
H        H      0.446170000000     0.941400000000     0.192500000000     0.0895309  
H        H      0.502870000000     0.042000000000     0.224400000000     0.0895309  
H        H      0.434070000000     0.028500000000     0.300500000000     0.0895309  
H        H      0.482370000000     0.804700000000     0.132000000000     0.0895309  
H        H      0.732270000000     0.628500000000     0.057900000000     0.0895309  
H        H      0.964670000000     0.715200000000     0.067000000000     0.0895309  
H        H      0.899470000000     0.627200000000     0.061600000000     0.0895309  
H        H      0.000670000000     0.668400000000     0.130200000000     0.0895309  
C        C      0.920800000000     0.835400000000     0.264300000000    -0.0299633  
C        C      0.889900000000     0.859300000000     0.358800000000    -0.0299633  
C        C      0.994800000000     0.997000000000     0.419700000000    -0.0299633  
C        C      0.023800000000     0.972000000000     0.325100000000    -0.0299633  
C        C      0.184600000000     0.003400000000     0.248800000000    -0.0299633  
C        C      0.050100000000     0.131000000000     0.345300000000    -0.0299633  
C        C      0.113000000000     0.206900000000     0.348400000000    -0.0299633  
C        C      0.965900000000     0.310400000000     0.408100000000    -0.0299633  
C        C      0.904100000000     0.233600000000     0.404100000000    -0.0299633  
C        C      0.727000000000     0.314600000000     0.418600000000    -0.0299633  
C        C      0.587470000000     0.428900000000     0.164600000000    -0.0299633  
C        C      0.556570000000     0.499500000000     0.140700000000    -0.0299633  
C        C      0.661470000000     0.422700000000     0.003000000000    -0.0299633  
C        C      0.690470000000     0.353100000000     0.028000000000    -0.0299633  
C        C      0.851270000000     0.245400000000     0.996600000000    -0.0299633  
C        C      0.716770000000     0.214300000000     0.869000000000    -0.0299633  
C        C      0.779670000000     0.141500000000     0.793100000000    -0.0299633  
C        C      0.632570000000     0.097700000000     0.689600000000    -0.0299633  
C        C      0.570770000000     0.170500000000     0.766400000000    -0.0299633  
C        C      0.393670000000     0.104000000000     0.685400000000    -0.0299633  
C        C      0.254130000000     0.735700000000     0.571100000000    -0.0299633  
C        C      0.223230000000     0.641200000000     0.500500000000    -0.0299633  
C        C      0.328130000000     0.580300000000     0.577300000000    -0.0299633  
C        C      0.357130000000     0.674900000000     0.646900000000    -0.0299633  
C        C      0.517930000000     0.751200000000     0.754600000000    -0.0299633  
C        C      0.383430000000     0.654700000000     0.785700000000    -0.0299633  
C        C      0.446330000000     0.651600000000     0.858500000000    -0.0299633  
C        C      0.299230000000     0.591900000000     0.902300000000    -0.0299633  
C        C      0.237430000000     0.595900000000     0.829500000000    -0.0299633  
C        C      0.060330000000     0.581400000000     0.896000000000    -0.0299633  
C        C      0.079200000000     0.571100000000     0.735700000000    -0.0299633  
C        C      0.110100000000     0.500500000000     0.641200000000    -0.0299633  
C        C      0.005200000000     0.577300000000     0.580300000000    -0.0299633  
C        C      0.976200000000     0.646900000000     0.674900000000    -0.0299633  
C        C      0.815400000000     0.754600000000     0.751200000000    -0.0299633  
C        C      0.949900000000     0.785700000000     0.654700000000    -0.0299633  
C        C      0.887000000000     0.858500000000     0.651600000000    -0.0299633  
C        C      0.034100000000     0.902300000000     0.591900000000    -0.0299633  
C        C      0.095900000000     0.829500000000     0.595900000000    -0.0299633  
C        C      0.273000000000     0.896000000000     0.581400000000    -0.0299633  
C        C      0.412530000000     0.264300000000     0.835400000000    -0.0299633  
C        C      0.443430000000     0.358800000000     0.859300000000    -0.0299633  
C        C      0.338530000000     0.419700000000     0.997000000000    -0.0299633  
C        C      0.309530000000     0.325100000000     0.972000000000    -0.0299633  
C        C      0.148730000000     0.248800000000     0.003400000000    -0.0299633  
C        C      0.283230000000     0.345300000000     0.131000000000    -0.0299633  
C        C      0.220330000000     0.348400000000     0.206900000000    -0.0299633  
C        C      0.367430000000     0.408100000000     0.310400000000    -0.0299633  
C        C      0.429230000000     0.404100000000     0.233600000000    -0.0299633  
C        C      0.606330000000     0.418600000000     0.314600000000    -0.0299633  
C        C      0.745870000000     0.164600000000     0.428900000000    -0.0299633  
C        C      0.776770000000     0.140700000000     0.499500000000    -0.0299633  
C        C      0.671870000000     0.003000000000     0.422700000000    -0.0299633  
C        C      0.642870000000     0.028000000000     0.353100000000    -0.0299633  
C        C      0.482070000000     0.996600000000     0.245400000000    -0.0299633  
C        C      0.616570000000     0.869000000000     0.214300000000    -0.0299633  
C        C      0.553670000000     0.793100000000     0.141500000000    -0.0299633  
C        C      0.700770000000     0.689600000000     0.097700000000    -0.0299633  
C        C      0.762570000000     0.766400000000     0.170500000000    -0.0299633  
C        C      0.939670000000     0.685400000000     0.104000000000    -0.0299633  
N        N      0.989300000000     0.890500000000     0.246900000000    -0.123557   
N        N      0.925500000000     0.940600000000     0.436900000000    -0.123557   
N        N      0.089800000000     0.036800000000     0.310300000000    -0.123557   
N        N      0.946400000000     0.145300000000     0.373000000000    -0.123557   
N        N      0.069200000000     0.296200000000     0.381700000000    -0.123557   
N        N      0.796000000000     0.245200000000     0.429800000000    -0.123557   
N        N      0.655970000000     0.356400000000     0.109500000000    -0.123557   
N        N      0.592170000000     0.496300000000     0.059400000000    -0.123557   
N        N      0.756470000000     0.273500000000     0.963200000000    -0.123557   
N        N      0.613070000000     0.227700000000     0.854700000000    -0.123557   
N        N      0.735870000000     0.085500000000     0.703800000000    -0.123557   
N        N      0.462670000000     0.184600000000     0.754800000000    -0.123557   
N        N      0.322630000000     0.753100000000     0.643600000000    -0.123557   
N        N      0.258830000000     0.563100000000     0.503700000000    -0.123557   
N        N      0.423130000000     0.689700000000     0.726500000000    -0.123557   
N        N      0.279730000000     0.627000000000     0.772300000000    -0.123557   
N        N      0.402530000000     0.618300000000     0.914500000000    -0.123557   
N        N      0.129330000000     0.570200000000     0.815400000000    -0.123557   
N        N      0.010700000000     0.643600000000     0.753100000000    -0.123557   
N        N      0.074500000000     0.503700000000     0.563100000000    -0.123557   
N        N      0.910200000000     0.726500000000     0.689700000000    -0.123557   
N        N      0.053600000000     0.772300000000     0.627000000000    -0.123557   
N        N      0.930800000000     0.914500000000     0.618300000000    -0.123557   
N        N      0.204000000000     0.815400000000     0.570200000000    -0.123557   
N        N      0.344030000000     0.246900000000     0.890500000000    -0.123557   
N        N      0.407830000000     0.436900000000     0.940600000000    -0.123557   
N        N      0.243530000000     0.310300000000     0.036800000000    -0.123557   
N        N      0.386930000000     0.373000000000     0.145300000000    -0.123557   
N        N      0.264130000000     0.381700000000     0.296200000000    -0.123557   
N        N      0.537330000000     0.429800000000     0.245200000000    -0.123557   
N        N      0.677370000000     0.109500000000     0.356400000000    -0.123557   
N        N      0.741170000000     0.059400000000     0.496300000000    -0.123557   
N        N      0.576870000000     0.963200000000     0.273500000000    -0.123557   
N        N      0.720270000000     0.854700000000     0.227700000000    -0.123557   
N        N      0.597470000000     0.703800000000     0.085500000000    -0.123557   
N        N      0.870670000000     0.754800000000     0.184600000000    -0.123557   


