data_BEKSAM_original

_audit_creation_method RASPA-1.0
_audit_creation_date 2022-1-30
_audit_author_name 'Felipe Lopes de Oliveira <felipe.lopes.oliveira@ibm.com>'

_cell_length_a    7.17403
_cell_length_b    10.176
_cell_length_c    11.941
_cell_angle_alpha 90
_cell_angle_beta  90.1421
_cell_angle_gamma 91.3726
_cell_volume      871.475

_symmetry_cell_setting          triclinic
_symmetry_space_group_name_Hall 'P 1'
_symmetry_space_group_name_H-M  'P 1'
_symmetry_Int_Tables_number     1

_symmetry_equiv_pos_as_xyz 'x,y,z'

loop_
_atom_site_label
_atom_site_type_symbol
_atom_site_fract_x
_atom_site_fract_y
_atom_site_fract_z
_atom_site_charge
Ga       Ga     0.494830000000     0.491528000000     0.497017000000     3.74841    
Ga       Ga     0.171463000000     0.667341000000     0.622275000000     3.74841    
Ga       Ga     0.819679000000     0.341730000000     0.636441000000     3.74841    
Ga       Ga     0.168898000000     0.654102000000     0.365082000000     3.74841    
Ga       Ga     0.816493000000     0.326809000000     0.364587000000     3.74841    
Ga       Ga     0.499158000000     0.998462000000     0.997024000000     3.74841    
Ga       Ga     0.822525000000     0.822649000000     0.123246000000     3.74841    
Ga       Ga     0.174309000000     0.148260000000     0.135480000000     3.74841    
Ga       Ga     0.825090000000     0.835888000000     0.866059000000     3.74841    
Ga       Ga     0.177495000000     0.163181000000     0.863634000000     3.74841    
P        P      0.246834000000     0.386282000000     0.696558000000     0.997254   
P        P      0.243527000000     0.369641000000     0.304573000000     0.997254   
P        P      0.749158000000     0.607045000000     0.300456000000     0.997254   
P        P      0.750501000000     0.625119000000     0.686368000000     0.997254   
P        P      0.747154000000     0.103708000000     0.197303000000     0.997254   
P        P      0.750461000000     0.120349000000     0.805328000000     0.997254   
P        P      0.244830000000     0.882945000000     0.799705000000     0.997254   
P        P      0.243487000000     0.864871000000     0.185613000000     0.997254   
O        O      0.258517000000     0.587001000000     0.496905000000    -1.26284    
O        O      0.732665000000     0.387080000000     0.499012000000    -1.26284    
O        O      0.415431000000     0.377323000000     0.620939000000    -1.26284    
O        O      0.582766000000     0.610981000000     0.378388000000    -1.26284    
O        O      0.078156000000     0.318600000000     0.638136000000    -1.26284    
O        O      0.410822000000     0.365208000000     0.382932000000    -1.26284    
O        O      0.076754000000     0.301996000000     0.363034000000    -1.26284    
O        O      0.283768000000     0.313885000000     0.808443000000    -1.26284    
O        O      0.919840000000     0.669403000000     0.359591000000    -1.26284    
O        O      0.285170000000     0.292790000000     0.197445000000    -1.26284    
O        O      0.200601000000     0.510308000000     0.268219000000    -1.26284    
O        O      0.590381000000     0.624606000000     0.603700000000    -1.26284    
O        O      0.787575000000     0.484963000000     0.728193000000    -1.26284    
O        O      0.925451000000     0.688122000000     0.629899000000    -1.26284    
O        O      0.709018000000     0.683301000000     0.194376000000    -1.26284    
O        O      0.700200000000     0.705572000000     0.789663000000    -1.26284    
O        O      0.211623000000     0.530545000000     0.727935000000    -1.26284    
O        O      0.787375000000     0.464562000000     0.263493000000    -1.26284    
O        O      0.735471000000     0.902989000000     0.997616000000    -1.26284    
O        O      0.261323000000     0.102910000000     0.998309000000    -1.26284    
O        O      0.578557000000     0.112667000000     0.121182000000    -1.26284    
O        O      0.411222000000     0.879009000000     0.878133000000    -1.26284    
O        O      0.915832000000     0.171390000000     0.139385000000    -1.26284    
O        O      0.583166000000     0.124782000000     0.883189000000    -1.26284    
O        O      0.917234000000     0.187994000000     0.864287000000    -1.26284    
O        O      0.710220000000     0.176105000000     0.309078000000    -1.26284    
O        O      0.074148000000     0.820587000000     0.858330000000    -1.26284    
O        O      0.708818000000     0.197200000000     0.698076000000    -1.26284    
O        O      0.793387000000     0.979682000000     0.769102000000    -1.26284    
O        O      0.403607000000     0.865384000000     0.103421000000    -1.26284    
O        O      0.206413000000     0.005027000000     0.227328000000    -1.26284    
O        O      0.068537000000     0.801868000000     0.128622000000    -1.26284    
O        O      0.284970000000     0.806689000000     0.693745000000    -1.26284    
O        O      0.293788000000     0.784418000000     0.289058000000    -1.26284    
O        O      0.782365000000     0.959445000000     0.228786000000    -1.26284    
O        O      0.206613000000     0.025428000000     0.762628000000    -1.26284    


