data_BENXUP_original

_audit_creation_method RASPA-1.0
_audit_creation_date 2022-1-29
_audit_author_name 'Felipe Lopes de Oliveira <felipe.lopes.oliveira@ibm.com>'

_cell_length_a    9.005
_cell_length_b    11.166
_cell_length_c    16.672
_cell_angle_alpha 108.447
_cell_angle_beta  90
_cell_angle_gamma 113.78
_cell_volume      1439.42

_symmetry_cell_setting          triclinic
_symmetry_space_group_name_Hall 'P 1'
_symmetry_space_group_name_H-M  'P 1'
_symmetry_Int_Tables_number     1

_symmetry_equiv_pos_as_xyz 'x,y,z'

loop_
_atom_site_label
_atom_site_type_symbol
_atom_site_fract_x
_atom_site_fract_y
_atom_site_fract_z
_atom_site_charge
Zn       Zn     0.144480000000     0.678380000000     0.732490000000     0.510076   
Zn       Zn     0.466100000000     0.321620000000     0.767510000000     0.510076   
Zn       Zn     0.855520000000     0.321620000000     0.267510000000     0.510076   
Zn       Zn     0.533900000000     0.678380000000     0.232490000000     0.510076   
Zn       Zn     0.248150000000     0.000000000000     0.750000000000     0.510076   
Zn       Zn     0.751850000000     0.000000000000     0.250000000000     0.510076   
H        H      0.932900000000     0.544000000000     0.467900000000     0.172226   
H        H      0.746100000000     0.862000000000     0.423600000000     0.172226   
H        H      0.893200000000     0.912400000000     0.555000000000     0.172226   
H        H      0.795600000000     0.375800000000     0.112800000000     0.172226   
H        H      0.600900000000     0.449600000000     0.122700000000     0.172226   
H        H      0.405300000000     0.203000000000     0.102200000000     0.172226   
H        H      0.484000000000     0.214000000000     0.191800000000     0.172226   
H        H      0.373700000000     0.295400000000     0.189800000000     0.172226   
H        H      0.332000000000     0.870000000000     0.815000000000     0.172226   
H        H      0.388900000000     0.456000000000     0.032100000000     0.172226   
H        H      0.884100000000     0.138000000000     0.076400000000     0.172226   
H        H      0.980800000000     0.087600000000     0.945000000000     0.172226   
H        H      0.419800000000     0.624200000000     0.387200000000     0.172226   
H        H      0.151300000000     0.550400000000     0.377300000000     0.172226   
H        H      0.202300000000     0.797000000000     0.397800000000     0.172226   
H        H      0.270000000000     0.786000000000     0.308200000000     0.172226   
H        H      0.078300000000     0.704600000000     0.310200000000     0.172226   
H        H      0.462000000000     0.130000000000     0.685000000000     0.172226   
H        H      0.067100000000     0.456000000000     0.532100000000     0.172226   
H        H      0.253900000000     0.138000000000     0.576400000000     0.172226   
H        H      0.106800000000     0.087600000000     0.445000000000     0.172226   
H        H      0.204400000000     0.624200000000     0.887200000000     0.172226   
H        H      0.399100000000     0.550400000000     0.877300000000     0.172226   
H        H      0.594700000000     0.797000000000     0.897800000000     0.172226   
H        H      0.516000000000     0.786000000000     0.808200000000     0.172226   
H        H      0.626300000000     0.704600000000     0.810200000000     0.172226   
H        H      0.668000000000     0.130000000000     0.185000000000     0.172226   
H        H      0.611100000000     0.544000000000     0.967900000000     0.172226   
H        H      0.115900000000     0.862000000000     0.923600000000     0.172226   
H        H      0.019200000000     0.912400000000     0.055000000000     0.172226   
H        H      0.580200000000     0.375800000000     0.612800000000     0.172226   
H        H      0.848700000000     0.449600000000     0.622700000000     0.172226   
H        H      0.797700000000     0.203000000000     0.602200000000     0.172226   
H        H      0.730000000000     0.214000000000     0.691800000000     0.172226   
H        H      0.921700000000     0.295400000000     0.689800000000     0.172226   
H        H      0.538000000000     0.870000000000     0.315000000000     0.172226   
C        C      0.898400000000     0.609000000000     0.458400000000    -0.00293291 
C        C      0.023900000000     0.770600000000     0.606800000000    -0.00293291 
C        C      0.929200000000     0.735600000000     0.522700000000    -0.00293291 
C        C      0.785400000000     0.799200000000     0.432500000000    -0.00293291 
C        C      0.816100000000     0.582400000000     0.380700000000    -0.00293291 
C        C      0.697400000000     0.499000000000     0.249800000000    -0.00293291 
C        C      0.758200000000     0.674000000000     0.368100000000    -0.00293291 
C        C      0.872000000000     0.827800000000     0.509700000000    -0.00293291 
C        C      0.619500000000     0.402200000000     0.160900000000    -0.00293291 
C        C      0.453700000000     0.264600000000     0.161200000000    -0.00293291 
C        C      0.289400000000     0.391000000000     0.041600000000    -0.00293291 
C        C      0.253300000000     0.229400000000     0.893200000000    -0.00293291 
C        C      0.193600000000     0.264400000000     0.977300000000    -0.00293291 
C        C      0.986200000000     0.200800000000     0.067500000000    -0.00293291 
C        C      0.233700000000     0.417600000000     0.119300000000    -0.00293291 
C        C      0.198400000000     0.501000000000     0.250200000000    -0.00293291 
C        C      0.084200000000     0.326000000000     0.131900000000    -0.00293291 
C        C      0.044200000000     0.172200000000     0.990300000000    -0.00293291 
C        C      0.217300000000     0.597800000000     0.339100000000    -0.00293291 
C        C      0.189100000000     0.735400000000     0.338800000000    -0.00293291 
C        C      0.101600000000     0.391000000000     0.541600000000    -0.00293291 
C        C      0.976100000000     0.229400000000     0.393200000000    -0.00293291 
C        C      0.070800000000     0.264400000000     0.477300000000    -0.00293291 
C        C      0.214600000000     0.200800000000     0.567500000000    -0.00293291 
C        C      0.183900000000     0.417600000000     0.619300000000    -0.00293291 
C        C      0.302600000000     0.501000000000     0.750200000000    -0.00293291 
C        C      0.241800000000     0.326000000000     0.631900000000    -0.00293291 
C        C      0.128000000000     0.172200000000     0.490300000000    -0.00293291 
C        C      0.380500000000     0.597800000000     0.839100000000    -0.00293291 
C        C      0.546300000000     0.735400000000     0.838800000000    -0.00293291 
C        C      0.710600000000     0.609000000000     0.958400000000    -0.00293291 
C        C      0.746700000000     0.770600000000     0.106800000000    -0.00293291 
C        C      0.806400000000     0.735600000000     0.022700000000    -0.00293291 
C        C      0.013800000000     0.799200000000     0.932500000000    -0.00293291 
C        C      0.766300000000     0.582400000000     0.880700000000    -0.00293291 
C        C      0.801600000000     0.499000000000     0.749800000000    -0.00293291 
C        C      0.915800000000     0.674000000000     0.868100000000    -0.00293291 
C        C      0.955800000000     0.827800000000     0.009700000000    -0.00293291 
C        C      0.782700000000     0.402200000000     0.660900000000    -0.00293291 
C        C      0.810900000000     0.264600000000     0.661200000000    -0.00293291 
N        N      0.776300000000     0.469800000000     0.303900000000    -0.161303   
N        N      0.679400000000     0.618000000000     0.283500000000    -0.161303   
N        N      0.306500000000     0.530200000000     0.196100000000    -0.161303   
N        N      0.061400000000     0.382000000000     0.216500000000    -0.161303   
N        N      0.223700000000     0.530200000000     0.696100000000    -0.161303   
N        N      0.320600000000     0.382000000000     0.716500000000    -0.161303   
N        N      0.693500000000     0.469800000000     0.803900000000    -0.161303   
N        N      0.938600000000     0.618000000000     0.783500000000    -0.161303   
O        O      0.055800000000     0.889400000000     0.662000000000    -0.490803   
O        O      0.300700000000     0.870600000000     0.780800000000    -0.490803   
O        O      0.070100000000     0.685200000000     0.618800000000    -0.490803   
O        O      0.711700000000     0.326200000000     0.128800000000    -0.490803   
O        O      0.166400000000     0.110600000000     0.838000000000    -0.490803   
O        O      0.430100000000     0.129400000000     0.719200000000    -0.490803   
O        O      0.384900000000     0.314800000000     0.881200000000    -0.490803   
O        O      0.385500000000     0.673800000000     0.371200000000    -0.490803   
O        O      0.944200000000     0.110600000000     0.338000000000    -0.490803   
O        O      0.699300000000     0.129400000000     0.219200000000    -0.490803   
O        O      0.929900000000     0.314800000000     0.381200000000    -0.490803   
O        O      0.288300000000     0.673800000000     0.871200000000    -0.490803   
O        O      0.833600000000     0.889400000000     0.162000000000    -0.490803   
O        O      0.569900000000     0.870600000000     0.280800000000    -0.490803   
O        O      0.615100000000     0.685200000000     0.118800000000    -0.490803   
O        O      0.614500000000     0.326200000000     0.628800000000    -0.490803   


