data_BEPMAM_original

_audit_creation_method RASPA-1.0
_audit_creation_date 2022-1-28
_audit_author_name 'Felipe Lopes de Oliveira <felipe.lopes.oliveira@ibm.com>'

_cell_length_a    10.1716
_cell_length_b    17.5911
_cell_length_c    17.5911
_cell_angle_alpha 120
_cell_angle_beta  90
_cell_angle_gamma 90
_cell_volume      2725.87

_symmetry_cell_setting          triclinic
_symmetry_space_group_name_Hall 'P 1'
_symmetry_space_group_name_H-M  'P 1'
_symmetry_Int_Tables_number     1

_symmetry_equiv_pos_as_xyz 'x,y,z'

loop_
_atom_site_label
_atom_site_type_symbol
_atom_site_fract_x
_atom_site_fract_y
_atom_site_fract_z
_atom_site_charge
Zn       Zn     0.869090000000     0.543330000000     0.467970000000     0.347383   
Zn       Zn     0.535760000000     0.924640000000     0.456670000000     0.347383   
Zn       Zn     0.202420000000     0.532030000000     0.075360000000     0.347383   
Zn       Zn     0.369090000000     0.456670000000     0.532030000000     0.347383   
Zn       Zn     0.035760000000     0.075360000000     0.543330000000     0.347383   
Zn       Zn     0.702420000000     0.467970000000     0.924640000000     0.347383   
H        H      0.585200000000     0.477200000000     0.778900000000     0.0942317  
H        H      0.631700000000     0.522900000000     0.678200000000     0.0942317  
H        H      0.979900000000     0.610100000000     0.794800000000     0.0942317  
H        H      0.927700000000     0.562500000000     0.890100000000     0.0942317  
H        H      0.791400000000     0.633800000000     0.653000000000     0.0942317  
H        H      0.939500000000     0.614800000000     0.662900000000     0.0942317  
H        H      0.965400000000     0.451900000000     0.613400000000     0.0942317  
H        H      0.802800000000     0.349200000000     0.508000000000     0.0942317  
H        H      0.942100000000     0.311800000000     0.509300000000     0.0942317  
H        H      0.907300000000     0.335300000000     0.436700000000     0.0942317  
H        H      0.765500000000     0.485500000000     0.558400000000     0.0942317  
H        H      0.251870000000     0.301700000000     0.522800000000     0.0942317  
H        H      0.298370000000     0.155300000000     0.477100000000     0.0942317  
H        H      0.646570000000     0.184700000000     0.389900000000     0.0942317  
H        H      0.594370000000     0.327600000000     0.437500000000     0.0942317  
H        H      0.458070000000     0.019200000000     0.366200000000     0.0942317  
H        H      0.606170000000     0.048100000000     0.385200000000     0.0942317  
H        H      0.632070000000     0.161500000000     0.548100000000     0.0942317  
H        H      0.469470000000     0.158800000000     0.650800000000     0.0942317  
H        H      0.608770000000     0.197500000000     0.688200000000     0.0942317  
H        H      0.573970000000     0.101400000000     0.664700000000     0.0942317  
H        H      0.432170000000     0.072900000000     0.514500000000     0.0942317  
H        H      0.918530000000     0.221100000000     0.698300000000     0.0942317  
H        H      0.965030000000     0.321800000000     0.844700000000     0.0942317  
H        H      0.313230000000     0.205200000000     0.815300000000     0.0942317  
H        H      0.261030000000     0.109900000000     0.672400000000     0.0942317  
H        H      0.124730000000     0.347000000000     0.980800000000     0.0942317  
H        H      0.272830000000     0.337100000000     0.951900000000     0.0942317  
H        H      0.298730000000     0.386600000000     0.838500000000     0.0942317  
H        H      0.136130000000     0.492000000000     0.841200000000     0.0942317  
H        H      0.275430000000     0.490700000000     0.802500000000     0.0942317  
H        H      0.240630000000     0.563300000000     0.898600000000     0.0942317  
H        H      0.098830000000     0.441600000000     0.927100000000     0.0942317  
H        H      0.085200000000     0.522800000000     0.221100000000     0.0942317  
H        H      0.131700000000     0.477100000000     0.321800000000     0.0942317  
H        H      0.479900000000     0.389900000000     0.205200000000     0.0942317  
H        H      0.427700000000     0.437500000000     0.109900000000     0.0942317  
H        H      0.291400000000     0.366200000000     0.347000000000     0.0942317  
H        H      0.439500000000     0.385200000000     0.337100000000     0.0942317  
H        H      0.465400000000     0.548100000000     0.386600000000     0.0942317  
H        H      0.302800000000     0.650800000000     0.492000000000     0.0942317  
H        H      0.442100000000     0.688200000000     0.490700000000     0.0942317  
H        H      0.407300000000     0.664700000000     0.563300000000     0.0942317  
H        H      0.265500000000     0.514500000000     0.441600000000     0.0942317  
H        H      0.751870000000     0.698300000000     0.477200000000     0.0942317  
H        H      0.798370000000     0.844700000000     0.522900000000     0.0942317  
H        H      0.146570000000     0.815300000000     0.610100000000     0.0942317  
H        H      0.094370000000     0.672400000000     0.562500000000     0.0942317  
H        H      0.958070000000     0.980800000000     0.633800000000     0.0942317  
H        H      0.106170000000     0.951900000000     0.614800000000     0.0942317  
H        H      0.132070000000     0.838500000000     0.451900000000     0.0942317  
H        H      0.969470000000     0.841200000000     0.349200000000     0.0942317  
H        H      0.108770000000     0.802500000000     0.311800000000     0.0942317  
H        H      0.073970000000     0.898600000000     0.335300000000     0.0942317  
H        H      0.932170000000     0.927100000000     0.485500000000     0.0942317  
H        H      0.418530000000     0.778900000000     0.301700000000     0.0942317  
H        H      0.465030000000     0.678200000000     0.155300000000     0.0942317  
H        H      0.813230000000     0.794800000000     0.184700000000     0.0942317  
H        H      0.761030000000     0.890100000000     0.327600000000     0.0942317  
H        H      0.624730000000     0.653000000000     0.019200000000     0.0942317  
H        H      0.772830000000     0.662900000000     0.048100000000     0.0942317  
H        H      0.798730000000     0.613400000000     0.161500000000     0.0942317  
H        H      0.636130000000     0.508000000000     0.158800000000     0.0942317  
H        H      0.775430000000     0.509300000000     0.197500000000     0.0942317  
H        H      0.740630000000     0.436700000000     0.101400000000     0.0942317  
H        H      0.598830000000     0.558400000000     0.072900000000     0.0942317  
C        C      0.665600000000     0.503700000000     0.781800000000    -0.0486731  
C        C      0.693900000000     0.530900000000     0.720300000000    -0.0486731  
C        C      0.813800000000     0.569600000000     0.722500000000    -0.0486731  
C        C      0.899800000000     0.582300000000     0.789200000000    -0.0486731  
C        C      0.867300000000     0.554300000000     0.846900000000    -0.0486731  
C        C      0.851500000000     0.590400000000     0.651900000000    -0.0486731  
C        C      0.944800000000     0.443700000000     0.555400000000    -0.0486731  
C        C      0.069400000000     0.460000000000     0.515900000000    -0.0486731  
C        C      0.894700000000     0.351700000000     0.497100000000    -0.0486731  
C        C      0.332270000000     0.278100000000     0.496300000000    -0.0486731  
C        C      0.360570000000     0.189400000000     0.469100000000    -0.0486731  
C        C      0.480470000000     0.152900000000     0.430400000000    -0.0486731  
C        C      0.566470000000     0.206900000000     0.417700000000    -0.0486731  
C        C      0.533970000000     0.292600000000     0.445700000000    -0.0486731  
C        C      0.518170000000     0.061500000000     0.409600000000    -0.0486731  
C        C      0.611470000000     0.111700000000     0.556300000000    -0.0486731  
C        C      0.736070000000     0.055900000000     0.540000000000    -0.0486731  
C        C      0.561370000000     0.145400000000     0.648300000000    -0.0486731  
C        C      0.998930000000     0.218200000000     0.721900000000    -0.0486731  
C        C      0.027230000000     0.279700000000     0.810600000000    -0.0486731  
C        C      0.147130000000     0.277500000000     0.847100000000    -0.0486731  
C        C      0.233130000000     0.210800000000     0.793100000000    -0.0486731  
C        C      0.200630000000     0.153100000000     0.707400000000    -0.0486731  
C        C      0.184830000000     0.348100000000     0.938500000000    -0.0486731  
C        C      0.278130000000     0.444600000000     0.888300000000    -0.0486731  
C        C      0.402730000000     0.484100000000     0.944100000000    -0.0486731  
C        C      0.228030000000     0.502900000000     0.854600000000    -0.0486731  
C        C      0.165600000000     0.496300000000     0.218200000000    -0.0486731  
C        C      0.193900000000     0.469100000000     0.279700000000    -0.0486731  
C        C      0.313800000000     0.430400000000     0.277500000000    -0.0486731  
C        C      0.399800000000     0.417700000000     0.210800000000    -0.0486731  
C        C      0.367300000000     0.445700000000     0.153100000000    -0.0486731  
C        C      0.351500000000     0.409600000000     0.348100000000    -0.0486731  
C        C      0.444800000000     0.556300000000     0.444600000000    -0.0486731  
C        C      0.569400000000     0.540000000000     0.484100000000    -0.0486731  
C        C      0.394700000000     0.648300000000     0.502900000000    -0.0486731  
C        C      0.832270000000     0.721900000000     0.503700000000    -0.0486731  
C        C      0.860570000000     0.810600000000     0.530900000000    -0.0486731  
C        C      0.980470000000     0.847100000000     0.569600000000    -0.0486731  
C        C      0.066470000000     0.793100000000     0.582300000000    -0.0486731  
C        C      0.033970000000     0.707400000000     0.554300000000    -0.0486731  
C        C      0.018170000000     0.938500000000     0.590400000000    -0.0486731  
C        C      0.111470000000     0.888300000000     0.443700000000    -0.0486731  
C        C      0.236070000000     0.944100000000     0.460000000000    -0.0486731  
C        C      0.061370000000     0.854600000000     0.351700000000    -0.0486731  
C        C      0.498930000000     0.781800000000     0.278100000000    -0.0486731  
C        C      0.527230000000     0.720300000000     0.189400000000    -0.0486731  
C        C      0.647130000000     0.722500000000     0.152900000000    -0.0486731  
C        C      0.733130000000     0.789200000000     0.206900000000    -0.0486731  
C        C      0.700630000000     0.846900000000     0.292600000000    -0.0486731  
C        C      0.684830000000     0.651900000000     0.061500000000    -0.0486731  
C        C      0.778130000000     0.555400000000     0.111700000000    -0.0486731  
C        C      0.902730000000     0.515900000000     0.055900000000    -0.0486731  
C        C      0.728030000000     0.497100000000     0.145400000000    -0.0486731  
N        N      0.846700000000     0.509800000000     0.564800000000    -0.181174   
N        N      0.751700000000     0.515200000000     0.843700000000    -0.181174   
N        N      0.513370000000     0.055000000000     0.490200000000    -0.181174   
N        N      0.418370000000     0.328500000000     0.484800000000    -0.181174   
N        N      0.180030000000     0.435200000000     0.945000000000    -0.181174   
N        N      0.085030000000     0.156300000000     0.671500000000    -0.181174   
N        N      0.346700000000     0.490200000000     0.435200000000    -0.181174   
N        N      0.251700000000     0.484800000000     0.156300000000    -0.181174   
N        N      0.013370000000     0.945000000000     0.509800000000    -0.181174   
N        N      0.918370000000     0.671500000000     0.515200000000    -0.181174   
N        N      0.680030000000     0.564800000000     0.055000000000    -0.181174   
N        N      0.585030000000     0.843700000000     0.328500000000    -0.181174   
O        O      0.172700000000     0.423400000000     0.525400000000    -0.291763   
O        O      0.063300000000     0.503200000000     0.477800000000    -0.291763   
O        O      0.839370000000     0.102000000000     0.576600000000    -0.291763   
O        O      0.729970000000     0.974600000000     0.496800000000    -0.291763   
O        O      0.506030000000     0.474600000000     0.898000000000    -0.291763   
O        O      0.396630000000     0.522200000000     0.025400000000    -0.291763   
O        O      0.672700000000     0.576600000000     0.474600000000    -0.291763   
O        O      0.563300000000     0.496800000000     0.522200000000    -0.291763   
O        O      0.339370000000     0.898000000000     0.423400000000    -0.291763   
O        O      0.229970000000     0.025400000000     0.503200000000    -0.291763   
O        O      0.006030000000     0.525400000000     0.102000000000    -0.291763   
O        O      0.896630000000     0.477800000000     0.974600000000    -0.291763   


