data_BEPMEQ_original

_audit_creation_method RASPA-1.0
_audit_creation_date 2022-1-30
_audit_author_name 'Felipe Lopes de Oliveira <felipe.lopes.oliveira@ibm.com>'

_cell_length_a    10.269
_cell_length_b    17.6015
_cell_length_c    17.6015
_cell_angle_alpha 120
_cell_angle_beta  90
_cell_angle_gamma 90
_cell_volume      2755.23

_symmetry_cell_setting          triclinic
_symmetry_space_group_name_Hall 'P 1'
_symmetry_space_group_name_H-M  'P 1'
_symmetry_Int_Tables_number     1

_symmetry_equiv_pos_as_xyz 'x,y,z'

loop_
_atom_site_label
_atom_site_type_symbol
_atom_site_fract_x
_atom_site_fract_y
_atom_site_fract_z
_atom_site_charge
Zn       Zn     0.908310000000     0.075710000000     0.538180000000     0.437001   
Zn       Zn     0.574980000000     0.462470000000     0.924290000000     0.437001   
Zn       Zn     0.241640000000     0.461820000000     0.537530000000     0.437001   
Zn       Zn     0.408310000000     0.924290000000     0.461820000000     0.437001   
Zn       Zn     0.074980000000     0.537530000000     0.075710000000     0.437001   
Zn       Zn     0.741640000000     0.538180000000     0.462470000000     0.437001   
H        H      0.946500000000     0.676500000000     0.569300000000     0.123276   
H        H      0.992600000000     0.820200000000     0.613800000000     0.123276   
H        H      0.684000000000     0.824000000000     0.477300000000     0.123276   
H        H      0.641000000000     0.682000000000     0.440800000000     0.123276   
H        H      0.810100000000     0.968800000000     0.610600000000     0.123276   
H        H      0.959200000000     0.947100000000     0.600500000000     0.123276   
H        H      0.993100000000     0.836900000000     0.431300000000     0.123276   
H        H      0.859500000000     0.846900000000     0.327800000000     0.123276   
H        H      0.006500000000     0.833700000000     0.300100000000     0.123276   
H        H      0.942800000000     0.926900000000     0.340100000000     0.123276   
H        H      0.803100000000     0.927000000000     0.467900000000     0.123276   
H        H      0.613170000000     0.892800000000     0.323500000000     0.123276   
H        H      0.659270000000     0.793600000000     0.179800000000     0.123276   
H        H      0.350670000000     0.653300000000     0.176000000000     0.123276   
H        H      0.307670000000     0.758800000000     0.318000000000     0.123276   
H        H      0.476770000000     0.641800000000     0.031200000000     0.123276   
H        H      0.625870000000     0.653400000000     0.052900000000     0.123276   
H        H      0.659770000000     0.594400000000     0.163100000000     0.123276   
H        H      0.526170000000     0.480900000000     0.153100000000     0.123276   
H        H      0.673170000000     0.466400000000     0.166300000000     0.123276   
H        H      0.609470000000     0.413200000000     0.073100000000     0.123276   
H        H      0.469770000000     0.540900000000     0.073000000000     0.123276   
H        H      0.279830000000     0.430700000000     0.107200000000     0.123276   
H        H      0.325930000000     0.386200000000     0.206400000000     0.123276   
H        H      0.017330000000     0.522700000000     0.346700000000     0.123276   
H        H      0.974330000000     0.559200000000     0.241200000000     0.123276   
H        H      0.143430000000     0.389400000000     0.358200000000     0.123276   
H        H      0.292530000000     0.399500000000     0.346600000000     0.123276   
H        H      0.326430000000     0.568700000000     0.405600000000     0.123276   
H        H      0.192830000000     0.672200000000     0.519100000000     0.123276   
H        H      0.339830000000     0.699900000000     0.533600000000     0.123276   
H        H      0.276130000000     0.659900000000     0.586800000000     0.123276   
H        H      0.136430000000     0.532100000000     0.459100000000     0.123276   
H        H      0.446500000000     0.323500000000     0.430700000000     0.123276   
H        H      0.492600000000     0.179800000000     0.386200000000     0.123276   
H        H      0.184000000000     0.176000000000     0.522700000000     0.123276   
H        H      0.141000000000     0.318000000000     0.559200000000     0.123276   
H        H      0.310100000000     0.031200000000     0.389400000000     0.123276   
H        H      0.459200000000     0.052900000000     0.399500000000     0.123276   
H        H      0.493100000000     0.163100000000     0.568700000000     0.123276   
H        H      0.359500000000     0.153100000000     0.672200000000     0.123276   
H        H      0.506500000000     0.166300000000     0.699900000000     0.123276   
H        H      0.442800000000     0.073100000000     0.659900000000     0.123276   
H        H      0.303100000000     0.073000000000     0.532100000000     0.123276   
H        H      0.113170000000     0.107200000000     0.676500000000     0.123276   
H        H      0.159270000000     0.206400000000     0.820200000000     0.123276   
H        H      0.850670000000     0.346700000000     0.824000000000     0.123276   
H        H      0.807670000000     0.241200000000     0.682000000000     0.123276   
H        H      0.976770000000     0.358200000000     0.968800000000     0.123276   
H        H      0.125870000000     0.346600000000     0.947100000000     0.123276   
H        H      0.159770000000     0.405600000000     0.836900000000     0.123276   
H        H      0.026170000000     0.519100000000     0.846900000000     0.123276   
H        H      0.173170000000     0.533600000000     0.833700000000     0.123276   
H        H      0.109470000000     0.586800000000     0.926900000000     0.123276   
H        H      0.969770000000     0.459100000000     0.927000000000     0.123276   
H        H      0.779830000000     0.569300000000     0.892800000000     0.123276   
H        H      0.825930000000     0.613800000000     0.793600000000     0.123276   
H        H      0.517330000000     0.477300000000     0.653300000000     0.123276   
H        H      0.474330000000     0.440800000000     0.758800000000     0.123276   
H        H      0.643430000000     0.610600000000     0.641800000000     0.123276   
H        H      0.792530000000     0.600500000000     0.653400000000     0.123276   
H        H      0.826430000000     0.431300000000     0.594400000000     0.123276   
H        H      0.692830000000     0.327800000000     0.480900000000     0.123276   
H        H      0.839830000000     0.300100000000     0.466400000000     0.123276   
H        H      0.776130000000     0.340100000000     0.413200000000     0.123276   
H        H      0.636430000000     0.467900000000     0.540900000000     0.123276   
C        C      0.892100000000     0.706700000000     0.551300000000    -0.0551604  
C        C      0.922300000000     0.792500000000     0.576800000000    -0.0551604  
C        C      0.845800000000     0.837000000000     0.546300000000    -0.0551604  
C        C      0.739100000000     0.795200000000     0.496600000000    -0.0551604  
C        C      0.713500000000     0.709800000000     0.475200000000    -0.0551604  
C        C      0.876100000000     0.930400000000     0.570300000000    -0.0551604  
C        C      0.982200000000     0.892600000000     0.432100000000    -0.0551604  
C        C      0.112100000000     0.942700000000     0.459700000000    -0.0551604  
C        C      0.944400000000     0.873300000000     0.341900000000    -0.0551604  
C        C      0.558770000000     0.844600000000     0.293300000000    -0.0551604  
C        C      0.588970000000     0.784300000000     0.207500000000    -0.0551604  
C        C      0.512470000000     0.709300000000     0.163000000000    -0.0551604  
C        C      0.405770000000     0.701400000000     0.204800000000    -0.0551604  
C        C      0.380170000000     0.765400000000     0.290200000000    -0.0551604  
C        C      0.542770000000     0.639900000000     0.069600000000    -0.0551604  
C        C      0.648870000000     0.539500000000     0.107400000000    -0.0551604  
C        C      0.778770000000     0.517000000000     0.057300000000    -0.0551604  
C        C      0.611070000000     0.468600000000     0.126700000000    -0.0551604  
C        C      0.225430000000     0.448700000000     0.155400000000    -0.0551604  
C        C      0.255630000000     0.423200000000     0.215700000000    -0.0551604  
C        C      0.179130000000     0.453700000000     0.290700000000    -0.0551604  
C        C      0.072430000000     0.503400000000     0.298600000000    -0.0551604  
C        C      0.046830000000     0.524800000000     0.234600000000    -0.0551604  
C        C      0.209430000000     0.429700000000     0.360100000000    -0.0551604  
C        C      0.315530000000     0.567900000000     0.460500000000    -0.0551604  
C        C      0.445430000000     0.540300000000     0.483000000000    -0.0551604  
C        C      0.277730000000     0.658100000000     0.531400000000    -0.0551604  
C        C      0.392100000000     0.293300000000     0.448700000000    -0.0551604  
C        C      0.422300000000     0.207500000000     0.423200000000    -0.0551604  
C        C      0.345800000000     0.163000000000     0.453700000000    -0.0551604  
C        C      0.239100000000     0.204800000000     0.503400000000    -0.0551604  
C        C      0.213500000000     0.290200000000     0.524800000000    -0.0551604  
C        C      0.376100000000     0.069600000000     0.429700000000    -0.0551604  
C        C      0.482200000000     0.107400000000     0.567900000000    -0.0551604  
C        C      0.612100000000     0.057300000000     0.540300000000    -0.0551604  
C        C      0.444400000000     0.126700000000     0.658100000000    -0.0551604  
C        C      0.058770000000     0.155400000000     0.706700000000    -0.0551604  
C        C      0.088970000000     0.215700000000     0.792500000000    -0.0551604  
C        C      0.012470000000     0.290700000000     0.837000000000    -0.0551604  
C        C      0.905770000000     0.298600000000     0.795200000000    -0.0551604  
C        C      0.880170000000     0.234600000000     0.709800000000    -0.0551604  
C        C      0.042770000000     0.360100000000     0.930400000000    -0.0551604  
C        C      0.148870000000     0.460500000000     0.892600000000    -0.0551604  
C        C      0.278770000000     0.483000000000     0.942700000000    -0.0551604  
C        C      0.111070000000     0.531400000000     0.873300000000    -0.0551604  
C        C      0.725430000000     0.551300000000     0.844600000000    -0.0551604  
C        C      0.755630000000     0.576800000000     0.784300000000    -0.0551604  
C        C      0.679130000000     0.546300000000     0.709300000000    -0.0551604  
C        C      0.572430000000     0.496600000000     0.701400000000    -0.0551604  
C        C      0.546830000000     0.475200000000     0.765400000000    -0.0551604  
C        C      0.709430000000     0.570300000000     0.639900000000    -0.0551604  
C        C      0.815530000000     0.432100000000     0.539500000000    -0.0551604  
C        C      0.945430000000     0.459700000000     0.517000000000    -0.0551604  
C        C      0.777730000000     0.341900000000     0.468600000000    -0.0551604  
N        N      0.881400000000     0.943300000000     0.495700000000    -0.187012   
N        N      0.789100000000     0.664800000000     0.502100000000    -0.187012   
N        N      0.548070000000     0.552400000000     0.056700000000    -0.187012   
N        N      0.455770000000     0.837300000000     0.335200000000    -0.187012   
N        N      0.214730000000     0.504300000000     0.447600000000    -0.187012   
N        N      0.122430000000     0.497900000000     0.162700000000    -0.187012   
N        N      0.381400000000     0.056700000000     0.504300000000    -0.187012   
N        N      0.289100000000     0.335200000000     0.497900000000    -0.187012   
N        N      0.048070000000     0.447600000000     0.943300000000    -0.187012   
N        N      0.955770000000     0.162700000000     0.664800000000    -0.187012   
N        N      0.714730000000     0.495700000000     0.552400000000    -0.187012   
N        N      0.622430000000     0.502100000000     0.837300000000    -0.187012   
Cl       Cl     0.912000000000     0.132870000000     0.450330000000    -0.385321   
Cl       Cl     0.578670000000     0.317460000000     0.867130000000    -0.385321   
Cl       Cl     0.245330000000     0.549670000000     0.682540000000    -0.385321   
Cl       Cl     0.412000000000     0.867130000000     0.549670000000    -0.385321   
Cl       Cl     0.078670000000     0.682540000000     0.132870000000    -0.385321   
Cl       Cl     0.745330000000     0.450330000000     0.317460000000    -0.385321   
O        O      0.212100000000     0.898500000000     0.425900000000    -0.268627   
O        O      0.106400000000     0.024000000000     0.512200000000    -0.268627   
O        O      0.878770000000     0.527400000000     0.101500000000    -0.268627   
O        O      0.773070000000     0.488200000000     0.976000000000    -0.268627   
O        O      0.545430000000     0.574100000000     0.472600000000    -0.268627   
O        O      0.439730000000     0.487800000000     0.511800000000    -0.268627   
O        O      0.712100000000     0.101500000000     0.574100000000    -0.268627   
O        O      0.606400000000     0.976000000000     0.487800000000    -0.268627   
O        O      0.378770000000     0.472600000000     0.898500000000    -0.268627   
O        O      0.273070000000     0.511800000000     0.024000000000    -0.268627   
O        O      0.045430000000     0.425900000000     0.527400000000    -0.268627   
O        O      0.939730000000     0.512200000000     0.488200000000    -0.268627   


