data_BEPNOB_original

_audit_creation_method RASPA-1.0
_audit_creation_date 2022-1-30
_audit_author_name 'Felipe Lopes de Oliveira <felipe.lopes.oliveira@ibm.com>'

_cell_length_a    10.1716
_cell_length_b    17.5911
_cell_length_c    17.5911
_cell_angle_alpha 120
_cell_angle_beta  90
_cell_angle_gamma 90
_cell_volume      2725.87

_symmetry_cell_setting          triclinic
_symmetry_space_group_name_Hall 'P 1'
_symmetry_space_group_name_H-M  'P 1'
_symmetry_Int_Tables_number     1

_symmetry_equiv_pos_as_xyz 'x,y,z'

loop_
_atom_site_label
_atom_site_type_symbol
_atom_site_fract_x
_atom_site_fract_y
_atom_site_fract_z
_atom_site_charge
Zn       Zn     0.866460000000     0.456630000000     0.531940000000     0.351435   
Zn       Zn     0.533130000000     0.075310000000     0.543370000000     0.351435   
Zn       Zn     0.199790000000     0.468060000000     0.924690000000     0.351435   
Zn       Zn     0.366460000000     0.543370000000     0.468060000000     0.351435   
Zn       Zn     0.033130000000     0.924690000000     0.456630000000     0.351435   
Zn       Zn     0.699790000000     0.531940000000     0.075310000000     0.351435   
H        H      0.583200000000     0.525300000000     0.223500000000     0.0962514  
H        H      0.926700000000     0.438200000000     0.110700000000     0.0962514  
H        H      0.788300000000     0.365700000000     0.346300000000     0.0962514  
H        H      0.936600000000     0.384400000000     0.336500000000     0.0962514  
H        H      0.962500000000     0.548500000000     0.387200000000     0.0962514  
H        H      0.976200000000     0.389700000000     0.205600000000     0.0962514  
H        H      0.628400000000     0.472300000000     0.319200000000     0.0962514  
H        H      0.800300000000     0.650400000000     0.490600000000     0.0962514  
H        H      0.940400000000     0.688100000000     0.491800000000     0.0962514  
H        H      0.901800000000     0.663900000000     0.563300000000     0.0962514  
H        H      0.249870000000     0.698200000000     0.474700000000     0.0962514  
H        H      0.593370000000     0.672500000000     0.561800000000     0.0962514  
H        H      0.454970000000     0.980600000000     0.634300000000     0.0962514  
H        H      0.603270000000     0.952100000000     0.615600000000     0.0962514  
H        H      0.629170000000     0.838700000000     0.451500000000     0.0962514  
H        H      0.642870000000     0.815900000000     0.610300000000     0.0962514  
H        H      0.295070000000     0.846900000000     0.527700000000     0.0962514  
H        H      0.466970000000     0.840200000000     0.349600000000     0.0962514  
H        H      0.607070000000     0.803700000000     0.311900000000     0.0962514  
H        H      0.568470000000     0.899400000000     0.336100000000     0.0962514  
H        H      0.916530000000     0.776500000000     0.301800000000     0.0962514  
H        H      0.260030000000     0.889300000000     0.327500000000     0.0962514  
H        H      0.121630000000     0.653700000000     0.019400000000     0.0962514  
H        H      0.269930000000     0.663500000000     0.047900000000     0.0962514  
H        H      0.295830000000     0.612800000000     0.161300000000     0.0962514  
H        H      0.309530000000     0.794400000000     0.184100000000     0.0962514  
H        H      0.961730000000     0.680800000000     0.153100000000     0.0962514  
H        H      0.133630000000     0.509400000000     0.159800000000     0.0962514  
H        H      0.273730000000     0.508200000000     0.196300000000     0.0962514  
H        H      0.235130000000     0.436700000000     0.100600000000     0.0962514  
H        H      0.083200000000     0.474700000000     0.776500000000     0.0962514  
H        H      0.426700000000     0.561800000000     0.889300000000     0.0962514  
H        H      0.288300000000     0.634300000000     0.653700000000     0.0962514  
H        H      0.436600000000     0.615600000000     0.663500000000     0.0962514  
H        H      0.462500000000     0.451500000000     0.612800000000     0.0962514  
H        H      0.476200000000     0.610300000000     0.794400000000     0.0962514  
H        H      0.128400000000     0.527700000000     0.680800000000     0.0962514  
H        H      0.300300000000     0.349600000000     0.509400000000     0.0962514  
H        H      0.440400000000     0.311900000000     0.508200000000     0.0962514  
H        H      0.401800000000     0.336100000000     0.436700000000     0.0962514  
H        H      0.749870000000     0.301800000000     0.525300000000     0.0962514  
H        H      0.093370000000     0.327500000000     0.438200000000     0.0962514  
H        H      0.954970000000     0.019400000000     0.365700000000     0.0962514  
H        H      0.103270000000     0.047900000000     0.384400000000     0.0962514  
H        H      0.129170000000     0.161300000000     0.548500000000     0.0962514  
H        H      0.142870000000     0.184100000000     0.389700000000     0.0962514  
H        H      0.795070000000     0.153100000000     0.472300000000     0.0962514  
H        H      0.966970000000     0.159800000000     0.650400000000     0.0962514  
H        H      0.107070000000     0.196300000000     0.688100000000     0.0962514  
H        H      0.068470000000     0.100600000000     0.663900000000     0.0962514  
H        H      0.416530000000     0.223500000000     0.698200000000     0.0962514  
H        H      0.760030000000     0.110700000000     0.672500000000     0.0962514  
H        H      0.621630000000     0.346300000000     0.980600000000     0.0962514  
H        H      0.769930000000     0.336500000000     0.952100000000     0.0962514  
H        H      0.795830000000     0.387200000000     0.838700000000     0.0962514  
H        H      0.809530000000     0.205600000000     0.815900000000     0.0962514  
H        H      0.461730000000     0.319200000000     0.846900000000     0.0962514  
H        H      0.633630000000     0.490600000000     0.840200000000     0.0962514  
H        H      0.773730000000     0.491800000000     0.803700000000     0.0962514  
H        H      0.735130000000     0.563300000000     0.899400000000     0.0962514  
C        C      0.662600000000     0.497000000000     0.218800000000    -0.050671   
C        C      0.865500000000     0.446000000000     0.153300000000    -0.050671   
C        C      0.848700000000     0.409000000000     0.347500000000    -0.050671   
C        C      0.942100000000     0.556700000000     0.445300000000    -0.050671   
C        C      0.896400000000     0.417900000000     0.211200000000    -0.050671   
C        C      0.067000000000     0.540100000000     0.484000000000    -0.050671   
C        C      0.691600000000     0.467000000000     0.278600000000    -0.050671   
C        C      0.811400000000     0.430600000000     0.277300000000    -0.050671   
C        C      0.891600000000     0.647900000000     0.502900000000    -0.050671   
C        C      0.329270000000     0.721800000000     0.503000000000    -0.050671   
C        C      0.532170000000     0.707300000000     0.554000000000    -0.050671   
C        C      0.515370000000     0.938500000000     0.591000000000    -0.050671   
C        C      0.608770000000     0.888600000000     0.443300000000    -0.050671   
C        C      0.563070000000     0.793300000000     0.582100000000    -0.050671   
C        C      0.733670000000     0.943900000000     0.459900000000    -0.050671   
C        C      0.358270000000     0.811600000000     0.533000000000    -0.050671   
C        C      0.478070000000     0.846700000000     0.569400000000    -0.050671   
C        C      0.558270000000     0.855000000000     0.352100000000    -0.050671   
C        C      0.995930000000     0.781200000000     0.278200000000    -0.050671   
C        C      0.198830000000     0.846700000000     0.292700000000    -0.050671   
C        C      0.182030000000     0.652500000000     0.061500000000    -0.050671   
C        C      0.275430000000     0.554700000000     0.111400000000    -0.050671   
C        C      0.229730000000     0.788800000000     0.206700000000    -0.050671   
C        C      0.400330000000     0.516000000000     0.056100000000    -0.050671   
C        C      0.024930000000     0.721400000000     0.188400000000    -0.050671   
C        C      0.144730000000     0.722700000000     0.153300000000    -0.050671   
C        C      0.224930000000     0.497100000000     0.145000000000    -0.050671   
C        C      0.162600000000     0.503000000000     0.781200000000    -0.050671   
C        C      0.365500000000     0.554000000000     0.846700000000    -0.050671   
C        C      0.348700000000     0.591000000000     0.652500000000    -0.050671   
C        C      0.442100000000     0.443300000000     0.554700000000    -0.050671   
C        C      0.396400000000     0.582100000000     0.788800000000    -0.050671   
C        C      0.567000000000     0.459900000000     0.516000000000    -0.050671   
C        C      0.191600000000     0.533000000000     0.721400000000    -0.050671   
C        C      0.311400000000     0.569400000000     0.722700000000    -0.050671   
C        C      0.391600000000     0.352100000000     0.497100000000    -0.050671   
C        C      0.829270000000     0.278200000000     0.497000000000    -0.050671   
C        C      0.032170000000     0.292700000000     0.446000000000    -0.050671   
C        C      0.015370000000     0.061500000000     0.409000000000    -0.050671   
C        C      0.108770000000     0.111400000000     0.556700000000    -0.050671   
C        C      0.063070000000     0.206700000000     0.417900000000    -0.050671   
C        C      0.233670000000     0.056100000000     0.540100000000    -0.050671   
C        C      0.858270000000     0.188400000000     0.467000000000    -0.050671   
C        C      0.978070000000     0.153300000000     0.430600000000    -0.050671   
C        C      0.058270000000     0.145000000000     0.647900000000    -0.050671   
C        C      0.495930000000     0.218800000000     0.721800000000    -0.050671   
C        C      0.698830000000     0.153300000000     0.707300000000    -0.050671   
C        C      0.682030000000     0.347500000000     0.938500000000    -0.050671   
C        C      0.775430000000     0.445300000000     0.888600000000    -0.050671   
C        C      0.729730000000     0.211200000000     0.793300000000    -0.050671   
C        C      0.900330000000     0.484000000000     0.943900000000    -0.050671   
C        C      0.524930000000     0.278600000000     0.811600000000    -0.050671   
C        C      0.644730000000     0.277300000000     0.846700000000    -0.050671   
C        C      0.724930000000     0.502900000000     0.855000000000    -0.050671   
N        N      0.844000000000     0.490200000000     0.435600000000    -0.146164   
N        N      0.748100000000     0.485000000000     0.156100000000    -0.146164   
N        N      0.510670000000     0.945400000000     0.509800000000    -0.146164   
N        N      0.414770000000     0.671100000000     0.515000000000    -0.146164   
N        N      0.177330000000     0.564400000000     0.054600000000    -0.146164   
N        N      0.081430000000     0.843900000000     0.328900000000    -0.146164   
N        N      0.344000000000     0.509800000000     0.564400000000    -0.146164   
N        N      0.248100000000     0.515000000000     0.843900000000    -0.146164   
N        N      0.010670000000     0.054600000000     0.490200000000    -0.146164   
N        N      0.914770000000     0.328900000000     0.485000000000    -0.146164   
N        N      0.677330000000     0.435600000000     0.945400000000    -0.146164   
N        N      0.581430000000     0.156100000000     0.671100000000    -0.146164   
O        O      0.060800000000     0.496900000000     0.522400000000    -0.282791   
O        O      0.170200000000     0.576500000000     0.474600000000    -0.282791   
O        O      0.727470000000     0.025500000000     0.503100000000    -0.282791   
O        O      0.836870000000     0.898100000000     0.423500000000    -0.282791   
O        O      0.394130000000     0.477600000000     0.974500000000    -0.282791   
O        O      0.503530000000     0.525400000000     0.101900000000    -0.282791   
O        O      0.560800000000     0.503100000000     0.477600000000    -0.282791   
O        O      0.670200000000     0.423500000000     0.525400000000    -0.282791   
O        O      0.227470000000     0.974500000000     0.496900000000    -0.282791   
O        O      0.336870000000     0.101900000000     0.576500000000    -0.282791   
O        O      0.894130000000     0.522400000000     0.025500000000    -0.282791   
O        O      0.003530000000     0.474600000000     0.898100000000    -0.282791   


