data_BEPNUH_original

_audit_creation_method RASPA-1.0
_audit_creation_date 2022-1-28
_audit_author_name 'Felipe Lopes de Oliveira <felipe.lopes.oliveira@ibm.com>'

_cell_length_a    10.1716
_cell_length_b    17.744
_cell_length_c    17.744
_cell_angle_alpha 120
_cell_angle_beta  90
_cell_angle_gamma 90
_cell_volume      2773.47

_symmetry_cell_setting          triclinic
_symmetry_space_group_name_Hall 'P 1'
_symmetry_space_group_name_H-M  'P 1'
_symmetry_Int_Tables_number     1

_symmetry_equiv_pos_as_xyz 'x,y,z'

loop_
_atom_site_label
_atom_site_type_symbol
_atom_site_fract_x
_atom_site_fract_y
_atom_site_fract_z
_atom_site_charge
Zn       Zn     0.868110000000     0.531630000000     0.456100000000     0.411909   
Zn       Zn     0.534780000000     0.924470000000     0.468370000000     0.411909   
Zn       Zn     0.201440000000     0.543900000000     0.075530000000     0.411909   
Zn       Zn     0.368110000000     0.468370000000     0.543900000000     0.411909   
Zn       Zn     0.034780000000     0.075530000000     0.531630000000     0.411909   
Zn       Zn     0.701440000000     0.456100000000     0.924470000000     0.411909   
H        H      0.969400000000     0.449500000000     0.522300000000     0.117442   
H        H      0.944100000000     0.350700000000     0.379000000000     0.117442   
H        H      0.795600000000     0.343700000000     0.398300000000     0.117442   
H        H      0.771400000000     0.404400000000     0.564400000000     0.117442   
H        H      0.813700000000     0.110500000000     0.439800000000     0.117442   
H        H      0.092000000000     0.333200000000     0.495800000000     0.117442   
H        H      0.753000000000     0.210300000000     0.399000000000     0.117442   
H        H      0.144200000000     0.230100000000     0.534900000000     0.117442   
H        H      0.921900000000     0.505600000000     0.666600000000     0.117442   
H        H      0.777300000000     0.535300000000     0.697900000000     0.117442   
H        H      0.858000000000     0.580100000000     0.655800000000     0.117442   
H        H      0.636070000000     0.072800000000     0.550500000000     0.117442   
H        H      0.610770000000     0.028300000000     0.649300000000     0.117442   
H        H      0.462270000000     0.054600000000     0.656300000000     0.117442   
H        H      0.438070000000     0.160000000000     0.595600000000     0.117442   
H        H      0.480370000000     0.329300000000     0.889500000000     0.117442   
H        H      0.758670000000     0.162600000000     0.666800000000     0.117442   
H        H      0.419670000000     0.188700000000     0.789700000000     0.117442   
H        H      0.810870000000     0.304800000000     0.769900000000     0.117442   
H        H      0.588570000000     0.161000000000     0.494400000000     0.117442   
H        H      0.443970000000     0.162600000000     0.464700000000     0.117442   
H        H      0.524670000000     0.075700000000     0.419900000000     0.117442   
H        H      0.302730000000     0.477700000000     0.927200000000     0.117442   
H        H      0.277430000000     0.621000000000     0.971700000000     0.117442   
H        H      0.128930000000     0.601700000000     0.945400000000     0.117442   
H        H      0.104730000000     0.435600000000     0.840000000000     0.117442   
H        H      0.147030000000     0.560200000000     0.670700000000     0.117442   
H        H      0.425330000000     0.504200000000     0.837400000000     0.117442   
H        H      0.086330000000     0.601000000000     0.811300000000     0.117442   
H        H      0.477530000000     0.465100000000     0.695200000000     0.117442   
H        H      0.255230000000     0.333400000000     0.839000000000     0.117442   
H        H      0.110630000000     0.302100000000     0.837400000000     0.117442   
H        H      0.191330000000     0.344200000000     0.924300000000     0.117442   
H        H      0.469400000000     0.550500000000     0.477700000000     0.117442   
H        H      0.444100000000     0.649300000000     0.621000000000     0.117442   
H        H      0.295600000000     0.656300000000     0.601700000000     0.117442   
H        H      0.271400000000     0.595600000000     0.435600000000     0.117442   
H        H      0.313700000000     0.889500000000     0.560200000000     0.117442   
H        H      0.592000000000     0.666800000000     0.504200000000     0.117442   
H        H      0.253000000000     0.789700000000     0.601000000000     0.117442   
H        H      0.644200000000     0.769900000000     0.465100000000     0.117442   
H        H      0.421900000000     0.494400000000     0.333400000000     0.117442   
H        H      0.277300000000     0.464700000000     0.302100000000     0.117442   
H        H      0.358000000000     0.419900000000     0.344200000000     0.117442   
H        H      0.136070000000     0.927200000000     0.449500000000     0.117442   
H        H      0.110770000000     0.971700000000     0.350700000000     0.117442   
H        H      0.962270000000     0.945400000000     0.343700000000     0.117442   
H        H      0.938070000000     0.840000000000     0.404400000000     0.117442   
H        H      0.980370000000     0.670700000000     0.110500000000     0.117442   
H        H      0.258670000000     0.837400000000     0.333200000000     0.117442   
H        H      0.919670000000     0.811300000000     0.210300000000     0.117442   
H        H      0.310870000000     0.695200000000     0.230100000000     0.117442   
H        H      0.088570000000     0.839000000000     0.505600000000     0.117442   
H        H      0.943970000000     0.837400000000     0.535300000000     0.117442   
H        H      0.024670000000     0.924300000000     0.580100000000     0.117442   
H        H      0.802730000000     0.522300000000     0.072800000000     0.117442   
H        H      0.777430000000     0.379000000000     0.028300000000     0.117442   
H        H      0.628930000000     0.398300000000     0.054600000000     0.117442   
H        H      0.604730000000     0.564400000000     0.160000000000     0.117442   
H        H      0.647030000000     0.439800000000     0.329300000000     0.117442   
H        H      0.925330000000     0.495800000000     0.162600000000     0.117442   
H        H      0.586330000000     0.399000000000     0.188700000000     0.117442   
H        H      0.977530000000     0.534900000000     0.304800000000     0.117442   
H        H      0.755230000000     0.666600000000     0.161000000000     0.117442   
H        H      0.610630000000     0.697900000000     0.162600000000     0.117442   
H        H      0.691330000000     0.655800000000     0.075700000000     0.117442   
C        C      0.917400000000     0.285000000000     0.445000000000    -0.052392   
C        C      0.664100000000     0.492300000000     0.544600000000    -0.052392   
C        C      0.883400000000     0.354500000000     0.423000000000    -0.052392   
C        C      0.790400000000     0.458700000000     0.564800000000    -0.052392   
C        C      0.870100000000     0.156400000000     0.451900000000    -0.052392   
C        C      0.032800000000     0.288800000000     0.484300000000    -0.052392   
C        C      0.832800000000     0.216100000000     0.427000000000    -0.052392   
C        C      0.064300000000     0.226400000000     0.507700000000    -0.052392   
C        C      0.841700000000     0.526200000000     0.654600000000    -0.052392   
C        C      0.584070000000     0.160000000000     0.715000000000    -0.052392   
C        C      0.330770000000     0.052300000000     0.507700000000    -0.052392   
C        C      0.550070000000     0.068500000000     0.645500000000    -0.052392   
C        C      0.457070000000     0.106100000000     0.541300000000    -0.052392   
C        C      0.536770000000     0.295500000000     0.843600000000    -0.052392   
C        C      0.699470000000     0.195500000000     0.711200000000    -0.052392   
C        C      0.499470000000     0.210900000000     0.783900000000    -0.052392   
C        C      0.730970000000     0.281300000000     0.773600000000    -0.052392   
C        C      0.508370000000     0.128400000000     0.473800000000    -0.052392   
C        C      0.250730000000     0.555000000000     0.840000000000    -0.052392   
C        C      0.997430000000     0.455400000000     0.947700000000    -0.052392   
C        C      0.216730000000     0.577000000000     0.931500000000    -0.052392   
C        C      0.123730000000     0.435200000000     0.893900000000    -0.052392   
C        C      0.203430000000     0.548100000000     0.704500000000    -0.052392   
C        C      0.366130000000     0.515700000000     0.804500000000    -0.052392   
C        C      0.166130000000     0.573000000000     0.789100000000    -0.052392   
C        C      0.397630000000     0.492300000000     0.718700000000    -0.052392   
C        C      0.175030000000     0.345400000000     0.871600000000    -0.052392   
C        C      0.417400000000     0.715000000000     0.555000000000    -0.052392   
C        C      0.164100000000     0.507700000000     0.455400000000    -0.052392   
C        C      0.383400000000     0.645500000000     0.577000000000    -0.052392   
C        C      0.290400000000     0.541300000000     0.435200000000    -0.052392   
C        C      0.370100000000     0.843600000000     0.548100000000    -0.052392   
C        C      0.532800000000     0.711200000000     0.515700000000    -0.052392   
C        C      0.332800000000     0.783900000000     0.573000000000    -0.052392   
C        C      0.564300000000     0.773600000000     0.492300000000    -0.052392   
C        C      0.341700000000     0.473800000000     0.345400000000    -0.052392   
C        C      0.084070000000     0.840000000000     0.285000000000    -0.052392   
C        C      0.830770000000     0.947700000000     0.492300000000    -0.052392   
C        C      0.050070000000     0.931500000000     0.354500000000    -0.052392   
C        C      0.957070000000     0.893900000000     0.458700000000    -0.052392   
C        C      0.036770000000     0.704500000000     0.156400000000    -0.052392   
C        C      0.199470000000     0.804500000000     0.288800000000    -0.052392   
C        C      0.999470000000     0.789100000000     0.216100000000    -0.052392   
C        C      0.230970000000     0.718700000000     0.226400000000    -0.052392   
C        C      0.008370000000     0.871600000000     0.526200000000    -0.052392   
C        C      0.750730000000     0.445000000000     0.160000000000    -0.052392   
C        C      0.497430000000     0.544600000000     0.052300000000    -0.052392   
C        C      0.716730000000     0.423000000000     0.068500000000    -0.052392   
C        C      0.623730000000     0.564800000000     0.106100000000    -0.052392   
C        C      0.703430000000     0.451900000000     0.295500000000    -0.052392   
C        C      0.866130000000     0.484300000000     0.195500000000    -0.052392   
C        C      0.666130000000     0.427000000000     0.210900000000    -0.052392   
C        C      0.897630000000     0.507700000000     0.281300000000    -0.052392   
C        C      0.675030000000     0.654600000000     0.128400000000    -0.052392   
Br       Br     0.898470000000     0.681410000000     0.551410000000    -0.316866   
Br       Br     0.565140000000     0.870000000000     0.318590000000    -0.316866   
Br       Br     0.231800000000     0.448590000000     0.130000000000    -0.316866   
Br       Br     0.398470000000     0.318590000000     0.448590000000    -0.316866   
Br       Br     0.065140000000     0.130000000000     0.681410000000    -0.316866   
Br       Br     0.731800000000     0.551410000000     0.870000000000    -0.316866   
N        N      0.888400000000     0.441900000000     0.497700000000    -0.184698   
N        N      0.982000000000     0.162000000000     0.491900000000    -0.184698   
N        N      0.555070000000     0.055800000000     0.558100000000    -0.184698   
N        N      0.648670000000     0.329900000000     0.838000000000    -0.184698   
N        N      0.221730000000     0.502300000000     0.944200000000    -0.184698   
N        N      0.315330000000     0.508100000000     0.670100000000    -0.184698   
N        N      0.388400000000     0.558100000000     0.502300000000    -0.184698   
N        N      0.482000000000     0.838000000000     0.508100000000    -0.184698   
N        N      0.055070000000     0.944200000000     0.441900000000    -0.184698   
N        N      0.148670000000     0.670100000000     0.162000000000    -0.184698   
N        N      0.721730000000     0.497700000000     0.055800000000    -0.184698   
N        N      0.815330000000     0.491900000000     0.329900000000    -0.184698   
O        O      0.668200000000     0.516900000000     0.489570000000    -0.272988   
O        O      0.564300000000     0.494500000000     0.587800000000    -0.272988   
O        O      0.334870000000     0.972670000000     0.483100000000    -0.272988   
O        O      0.230970000000     0.093300000000     0.505500000000    -0.272988   
O        O      0.001530000000     0.510430000000     0.027330000000    -0.272988   
O        O      0.897630000000     0.412200000000     0.906700000000    -0.272988   
O        O      0.168200000000     0.483100000000     0.510430000000    -0.272988   
O        O      0.064300000000     0.505500000000     0.412200000000    -0.272988   
O        O      0.834870000000     0.027330000000     0.516900000000    -0.272988   
O        O      0.730970000000     0.906700000000     0.494500000000    -0.272988   
O        O      0.501530000000     0.489570000000     0.972670000000    -0.272988   
O        O      0.397630000000     0.587800000000     0.093300000000    -0.272988   


