data_BEPPOD_original

_audit_creation_method RASPA-1.0
_audit_creation_date 2022-1-31
_audit_author_name 'Felipe Lopes de Oliveira <felipe.lopes.oliveira@ibm.com>'

_cell_length_a    10.3433
_cell_length_b    17.7336
_cell_length_c    17.7336
_cell_angle_alpha 120
_cell_angle_beta  90
_cell_angle_gamma 90
_cell_volume      2816.98

_symmetry_cell_setting          triclinic
_symmetry_space_group_name_Hall 'P 1'
_symmetry_space_group_name_H-M  'P 1'
_symmetry_Int_Tables_number     1

_symmetry_equiv_pos_as_xyz 'x,y,z'

loop_
_atom_site_label
_atom_site_type_symbol
_atom_site_fract_x
_atom_site_fract_y
_atom_site_fract_z
_atom_site_charge
Zn       Zn     0.844200000000     0.455530000000     0.928740000000     0.331726   
Zn       Zn     0.510870000000     0.473210000000     0.544470000000     0.331726   
Zn       Zn     0.177530000000     0.071260000000     0.526790000000     0.331726   
Zn       Zn     0.344200000000     0.544470000000     0.071260000000     0.331726   
Zn       Zn     0.010870000000     0.526790000000     0.455530000000     0.331726   
Zn       Zn     0.677530000000     0.928740000000     0.473210000000     0.331726   
H        H      0.303500000000     0.571400000000     0.676600000000     0.211747   
H        H      0.631800000000     0.476000000000     0.696600000000     0.211747   
H        H      0.251600000000     0.618000000000     0.819300000000     0.211747   
H        H      0.234300000000     0.473300000000     0.845800000000     0.211747   
H        H      0.210800000000     0.326300000000     0.806100000000     0.211747   
H        H      0.446200000000     0.627400000000     0.979900000000     0.211747   
H        H      0.298800000000     0.623600000000     0.957100000000     0.211747   
H        H      0.593400000000     0.521200000000     0.841100000000     0.211747   
H        H      0.400800000000     0.359900000000     0.931200000000     0.211747   
H        H      0.369500000000     0.264900000000     0.856900000000     0.211747   
H        H      0.263200000000     0.320300000000     0.925400000000     0.211747   
H        H      0.352700000000     0.350900000000     0.721500000000     0.211747   
H        H      0.410000000000     0.276000000000     0.734000000000     0.211747   
H        H      0.465600000000     0.370700000000     0.787900000000     0.211747   
H        H      0.970170000000     0.105200000000     0.428600000000     0.211747   
H        H      0.298470000000     0.220600000000     0.524000000000     0.211747   
H        H      0.918270000000     0.201300000000     0.382000000000     0.211747   
H        H      0.900970000000     0.372500000000     0.526700000000     0.211747   
H        H      0.877470000000     0.479800000000     0.673700000000     0.211747   
H        H      0.112870000000     0.352500000000     0.372600000000     0.211747   
H        H      0.965470000000     0.333500000000     0.376400000000     0.211747   
H        H      0.260070000000     0.319900000000     0.478800000000     0.211747   
H        H      0.067470000000     0.571300000000     0.640100000000     0.211747   
H        H      0.036170000000     0.592000000000     0.735100000000     0.211747   
H        H      0.929870000000     0.605100000000     0.679700000000     0.211747   
H        H      0.019370000000     0.370600000000     0.649100000000     0.211747   
H        H      0.076670000000     0.458000000000     0.724000000000     0.211747   
H        H      0.132270000000     0.417200000000     0.629300000000     0.211747   
H        H      0.636830000000     0.323400000000     0.894800000000     0.211747   
H        H      0.965130000000     0.303400000000     0.779400000000     0.211747   
H        H      0.584930000000     0.180700000000     0.798700000000     0.211747   
H        H      0.567630000000     0.154200000000     0.627500000000     0.211747   
H        H      0.544130000000     0.193900000000     0.520200000000     0.211747   
H        H      0.779530000000     0.020100000000     0.647500000000     0.211747   
H        H      0.632130000000     0.042900000000     0.666500000000     0.211747   
H        H      0.926730000000     0.158900000000     0.680100000000     0.211747   
H        H      0.734130000000     0.068800000000     0.428700000000     0.211747   
H        H      0.702830000000     0.143100000000     0.408000000000     0.211747   
H        H      0.596530000000     0.074600000000     0.394900000000     0.211747   
H        H      0.686030000000     0.278500000000     0.629400000000     0.211747   
H        H      0.743330000000     0.266000000000     0.542000000000     0.211747   
H        H      0.798930000000     0.212100000000     0.582800000000     0.211747   
H        H      0.803500000000     0.428600000000     0.323400000000     0.211747   
H        H      0.131800000000     0.524000000000     0.303400000000     0.211747   
H        H      0.751600000000     0.382000000000     0.180700000000     0.211747   
H        H      0.734300000000     0.526700000000     0.154200000000     0.211747   
H        H      0.710800000000     0.673700000000     0.193900000000     0.211747   
H        H      0.946200000000     0.372600000000     0.020100000000     0.211747   
H        H      0.798800000000     0.376400000000     0.042900000000     0.211747   
H        H      0.093400000000     0.478800000000     0.158900000000     0.211747   
H        H      0.900800000000     0.640100000000     0.068800000000     0.211747   
H        H      0.869500000000     0.735100000000     0.143100000000     0.211747   
H        H      0.763200000000     0.679700000000     0.074600000000     0.211747   
H        H      0.852700000000     0.649100000000     0.278500000000     0.211747   
H        H      0.910000000000     0.724000000000     0.266000000000     0.211747   
H        H      0.965600000000     0.629300000000     0.212100000000     0.211747   
H        H      0.470170000000     0.894800000000     0.571400000000     0.211747   
H        H      0.798470000000     0.779400000000     0.476000000000     0.211747   
H        H      0.418270000000     0.798700000000     0.618000000000     0.211747   
H        H      0.400970000000     0.627500000000     0.473300000000     0.211747   
H        H      0.377470000000     0.520200000000     0.326300000000     0.211747   
H        H      0.612870000000     0.647500000000     0.627400000000     0.211747   
H        H      0.465470000000     0.666500000000     0.623600000000     0.211747   
H        H      0.760070000000     0.680100000000     0.521200000000     0.211747   
H        H      0.567470000000     0.428700000000     0.359900000000     0.211747   
H        H      0.536170000000     0.408000000000     0.264900000000     0.211747   
H        H      0.429870000000     0.394900000000     0.320300000000     0.211747   
H        H      0.519370000000     0.629400000000     0.350900000000     0.211747   
H        H      0.576670000000     0.542000000000     0.276000000000     0.211747   
H        H      0.632270000000     0.582800000000     0.370700000000     0.211747   
H        H      0.136830000000     0.676600000000     0.105200000000     0.211747   
H        H      0.465130000000     0.696600000000     0.220600000000     0.211747   
H        H      0.084930000000     0.819300000000     0.201300000000     0.211747   
H        H      0.067630000000     0.845800000000     0.372500000000     0.211747   
H        H      0.044130000000     0.806100000000     0.479800000000     0.211747   
H        H      0.279530000000     0.979900000000     0.352500000000     0.211747   
H        H      0.132130000000     0.957100000000     0.333500000000     0.211747   
H        H      0.426730000000     0.841100000000     0.319900000000     0.211747   
H        H      0.234130000000     0.931200000000     0.571300000000     0.211747   
H        H      0.202830000000     0.856900000000     0.592000000000     0.211747   
H        H      0.096530000000     0.925400000000     0.605100000000     0.211747   
H        H      0.186030000000     0.721500000000     0.370600000000     0.211747   
H        H      0.243330000000     0.734000000000     0.458000000000     0.211747   
H        H      0.298930000000     0.787900000000     0.417200000000     0.211747   
C        C      0.138900000000     0.467300000000     0.944700000000    -0.215058   
C        C      0.362300000000     0.561700000000     0.710500000000    -0.215058   
C        C      0.555900000000     0.505800000000     0.722500000000    -0.215058   
C        C      0.329400000000     0.589300000000     0.796500000000    -0.215058   
C        C      0.257100000000     0.453700000000     0.886900000000    -0.215058   
C        C      0.290500000000     0.357300000000     0.834600000000    -0.215058   
C        C      0.379500000000     0.591500000000     0.939100000000    -0.215058   
C        C      0.414500000000     0.573500000000     0.848300000000    -0.215058   
C        C      0.532100000000     0.531500000000     0.809000000000    -0.215058   
C        C      0.335000000000     0.322400000000     0.892200000000    -0.215058   
C        C      0.388800000000     0.336800000000     0.762800000000    -0.215058   
C        C      0.805570000000     0.477400000000     0.532700000000    -0.215058   
C        C      0.028970000000     0.148800000000     0.438300000000    -0.215058   
C        C      0.222570000000     0.216700000000     0.494200000000    -0.215058   
C        C      0.996070000000     0.207200000000     0.410700000000    -0.215058   
C        C      0.923770000000     0.433200000000     0.546300000000    -0.215058   
C        C      0.957170000000     0.477300000000     0.642700000000    -0.215058   
C        C      0.046170000000     0.347600000000     0.408500000000    -0.215058   
C        C      0.081170000000     0.274800000000     0.426500000000    -0.215058   
C        C      0.198770000000     0.277500000000     0.468500000000    -0.215058   
C        C      0.001670000000     0.569800000000     0.677600000000    -0.215058   
C        C      0.055470000000     0.426000000000     0.663200000000    -0.215058   
C        C      0.472230000000     0.055300000000     0.522600000000    -0.215058   
C        C      0.695630000000     0.289500000000     0.851200000000    -0.215058   
C        C      0.889230000000     0.277500000000     0.783300000000    -0.215058   
C        C      0.662730000000     0.203500000000     0.792800000000    -0.215058   
C        C      0.590430000000     0.113100000000     0.566800000000    -0.215058   
C        C      0.623830000000     0.165400000000     0.522700000000    -0.215058   
C        C      0.712830000000     0.060900000000     0.652400000000    -0.215058   
C        C      0.747830000000     0.151700000000     0.725200000000    -0.215058   
C        C      0.865430000000     0.191000000000     0.722500000000    -0.215058   
C        C      0.668330000000     0.107800000000     0.430200000000    -0.215058   
C        C      0.722130000000     0.237200000000     0.574000000000    -0.215058   
C        C      0.638900000000     0.532700000000     0.055300000000    -0.215058   
C        C      0.862300000000     0.438300000000     0.289500000000    -0.215058   
C        C      0.055900000000     0.494200000000     0.277500000000    -0.215058   
C        C      0.829400000000     0.410700000000     0.203500000000    -0.215058   
C        C      0.757100000000     0.546300000000     0.113100000000    -0.215058   
C        C      0.790500000000     0.642700000000     0.165400000000    -0.215058   
C        C      0.879500000000     0.408500000000     0.060900000000    -0.215058   
C        C      0.914500000000     0.426500000000     0.151700000000    -0.215058   
C        C      0.032100000000     0.468500000000     0.191000000000    -0.215058   
C        C      0.835000000000     0.677600000000     0.107800000000    -0.215058   
C        C      0.888800000000     0.663200000000     0.237200000000    -0.215058   
C        C      0.305570000000     0.522600000000     0.467300000000    -0.215058   
C        C      0.528970000000     0.851200000000     0.561700000000    -0.215058   
C        C      0.722570000000     0.783300000000     0.505800000000    -0.215058   
C        C      0.496070000000     0.792800000000     0.589300000000    -0.215058   
C        C      0.423770000000     0.566800000000     0.453700000000    -0.215058   
C        C      0.457170000000     0.522700000000     0.357300000000    -0.215058   
C        C      0.546170000000     0.652400000000     0.591500000000    -0.215058   
C        C      0.581170000000     0.725200000000     0.573500000000    -0.215058   
C        C      0.698770000000     0.722500000000     0.531500000000    -0.215058   
C        C      0.501670000000     0.430200000000     0.322400000000    -0.215058   
C        C      0.555470000000     0.574000000000     0.336800000000    -0.215058   
C        C      0.972230000000     0.944700000000     0.477400000000    -0.215058   
C        C      0.195630000000     0.710500000000     0.148800000000    -0.215058   
C        C      0.389230000000     0.722500000000     0.216700000000    -0.215058   
C        C      0.162730000000     0.796500000000     0.207200000000    -0.215058   
C        C      0.090430000000     0.886900000000     0.433200000000    -0.215058   
C        C      0.123830000000     0.834600000000     0.477300000000    -0.215058   
C        C      0.212830000000     0.939100000000     0.347600000000    -0.215058   
C        C      0.247830000000     0.848300000000     0.274800000000    -0.215058   
C        C      0.365430000000     0.809000000000     0.277500000000    -0.215058   
C        C      0.168330000000     0.892200000000     0.569800000000    -0.215058   
C        C      0.222130000000     0.762800000000     0.426000000000    -0.215058   
N        N      0.470700000000     0.523000000000     0.674600000000    -0.116587   
N        N      0.365900000000     0.508600000000     0.942000000000    -0.116587   
N        N      0.137370000000     0.151600000000     0.477000000000    -0.116587   
N        N      0.032570000000     0.433400000000     0.491400000000    -0.116587   
N        N      0.804030000000     0.325400000000     0.848400000000    -0.116587   
N        N      0.699230000000     0.058000000000     0.566600000000    -0.116587   
N        N      0.970700000000     0.477000000000     0.325400000000    -0.116587   
N        N      0.865900000000     0.491400000000     0.058000000000    -0.116587   
N        N      0.637370000000     0.848400000000     0.523000000000    -0.116587   
N        N      0.532570000000     0.566600000000     0.508600000000    -0.116587   
N        N      0.304030000000     0.674600000000     0.151600000000    -0.116587   
N        N      0.199230000000     0.942000000000     0.433400000000    -0.116587   
O        O      0.038100000000     0.428800000000     0.902600000000    -0.348688   
O        O      0.147900000000     0.514700000000     0.025300000000    -0.348688   
O        O      0.704770000000     0.473800000000     0.571200000000    -0.348688   
O        O      0.814570000000     0.510600000000     0.485300000000    -0.348688   
O        O      0.371430000000     0.097400000000     0.526200000000    -0.348688   
O        O      0.481230000000     0.974700000000     0.489400000000    -0.348688   
O        O      0.538100000000     0.571200000000     0.097400000000    -0.348688   
O        O      0.647900000000     0.485300000000     0.974700000000    -0.348688   
O        O      0.204770000000     0.526200000000     0.428800000000    -0.348688   
O        O      0.314570000000     0.489400000000     0.514700000000    -0.348688   
O        O      0.871430000000     0.902600000000     0.473800000000    -0.348688   
O        O      0.981230000000     0.025300000000     0.510600000000    -0.348688   


