data_BERFIP_original

_audit_creation_method RASPA-1.0
_audit_creation_date 2022-1-29
_audit_author_name 'Felipe Lopes de Oliveira <felipe.lopes.oliveira@ibm.com>'

_cell_length_a    7.977
_cell_length_b    9.2821
_cell_length_c    15.8519
_cell_angle_alpha 85.3868
_cell_angle_beta  79.212
_cell_angle_gamma 64.5516
_cell_volume      1041.11

_symmetry_cell_setting          triclinic
_symmetry_space_group_name_Hall 'P 1'
_symmetry_space_group_name_H-M  'P 1'
_symmetry_Int_Tables_number     1

_symmetry_equiv_pos_as_xyz 'x,y,z'

loop_
_atom_site_label
_atom_site_type_symbol
_atom_site_fract_x
_atom_site_fract_y
_atom_site_fract_z
_atom_site_charge
Zn       Zn     0.250560000000     0.351240000000     0.504310000000     0.408308   
Zn       Zn     0.398200000000     0.351240000000     0.995690000000     0.408308   
Zn       Zn     0.749440000000     0.648760000000     0.495690000000     0.408308   
Zn       Zn     0.601800000000     0.648760000000     0.004310000000     0.408308   
Zn       Zn     0.935530000000     0.128940000000     0.250000000000     0.408308   
Zn       Zn     0.064470000000     0.871060000000     0.750000000000     0.408308   
H        H      0.830200000000     0.208800000000     0.594500000000     0.118547   
H        H      0.394000000000     0.096400000000     0.365200000000     0.118547   
H        H      0.316900000000     0.045000000000     0.300600000000     0.118547   
H        H      0.718700000000     0.440800000000     0.358000000000     0.118547   
H        H      0.961000000000     0.208800000000     0.905500000000     0.118547   
H        H      0.509600000000     0.096400000000     0.134800000000     0.118547   
H        H      0.638100000000     0.045000000000     0.199400000000     0.118547   
H        H      0.840500000000     0.440800000000     0.142000000000     0.118547   
H        H      0.169800000000     0.791200000000     0.405500000000     0.118547   
H        H      0.606000000000     0.903600000000     0.634800000000     0.118547   
H        H      0.683100000000     0.955000000000     0.699400000000     0.118547   
H        H      0.281300000000     0.559200000000     0.642000000000     0.118547   
H        H      0.039000000000     0.791200000000     0.094500000000     0.118547   
H        H      0.490400000000     0.903600000000     0.865200000000     0.118547   
H        H      0.361900000000     0.955000000000     0.800600000000     0.118547   
H        H      0.159500000000     0.559200000000     0.858000000000     0.118547   
C        C      0.600800000000     0.190000000000     0.501400000000     0.123001   
C        C      0.899300000000     0.124400000000     0.556200000000     0.123001   
C        C      0.911400000000     0.963200000000     0.441900000000     0.123001   
C        C      0.807600000000     0.090800000000     0.498800000000     0.123001   
C        C      0.130900000000     0.233800000000     0.363300000000     0.123001   
C        C      0.841600000000     0.392800000000     0.368800000000     0.123001   
C        C      0.831300000000     0.915400000000     0.375800000000     0.123001   
C        C      0.209200000000     0.190000000000     0.998600000000     0.123001   
C        C      0.976300000000     0.124400000000     0.943800000000     0.123001   
C        C      0.125400000000     0.963200000000     0.058100000000     0.123001   
C        C      0.101600000000     0.090800000000     0.001200000000     0.123001   
C        C      0.635300000000     0.233800000000     0.136700000000     0.123001   
C        C      0.765600000000     0.392800000000     0.131200000000     0.123001   
C        C      0.253300000000     0.915400000000     0.124200000000     0.123001   
C        C      0.399200000000     0.810000000000     0.498600000000     0.123001   
C        C      0.100700000000     0.875600000000     0.443800000000     0.123001   
C        C      0.088600000000     0.036800000000     0.558100000000     0.123001   
C        C      0.192400000000     0.909200000000     0.501200000000     0.123001   
C        C      0.869100000000     0.766200000000     0.636700000000     0.123001   
C        C      0.158400000000     0.607200000000     0.631200000000     0.123001   
C        C      0.168700000000     0.084600000000     0.624200000000     0.123001   
C        C      0.790800000000     0.810000000000     0.001400000000     0.123001   
C        C      0.023700000000     0.875600000000     0.056200000000     0.123001   
C        C      0.874600000000     0.036800000000     0.941900000000     0.123001   
C        C      0.898400000000     0.909200000000     0.998800000000     0.123001   
C        C      0.364700000000     0.766200000000     0.863300000000     0.123001   
C        C      0.234400000000     0.607200000000     0.868800000000     0.123001   
C        C      0.746700000000     0.084600000000     0.875800000000     0.123001   
N        N      0.090400000000     0.341800000000     0.423700000000    -0.211292   
N        N      0.301400000000     0.110000000000     0.340200000000    -0.211292   
N        N      0.977200000000     0.261600000000     0.327700000000    -0.211292   
N        N      0.902000000000     0.445400000000     0.425900000000    -0.211292   
N        N      0.567800000000     0.341800000000     0.076300000000    -0.211292   
N        N      0.588600000000     0.110000000000     0.159800000000    -0.211292   
N        N      0.761200000000     0.261600000000     0.172300000000    -0.211292   
N        N      0.652600000000     0.445400000000     0.074100000000    -0.211292   
N        N      0.909600000000     0.658200000000     0.576300000000    -0.211292   
N        N      0.698600000000     0.890000000000     0.659800000000    -0.211292   
N        N      0.022800000000     0.738400000000     0.672300000000    -0.211292   
N        N      0.098000000000     0.554600000000     0.574100000000    -0.211292   
N        N      0.432200000000     0.658200000000     0.923700000000    -0.211292   
N        N      0.411400000000     0.890000000000     0.840200000000    -0.211292   
N        N      0.238800000000     0.738400000000     0.827700000000    -0.211292   
N        N      0.347400000000     0.554600000000     0.925900000000    -0.211292   
O        O      0.515900000000     0.155800000000     0.452800000000    -0.275622   
O        O      0.514700000000     0.305600000000     0.551800000000    -0.275622   
O        O      0.790000000000     0.798600000000     0.390800000000    -0.275622   
O        O      0.825300000000     0.983600000000     0.303300000000    -0.275622   
O        O      0.328300000000     0.155800000000     0.047200000000    -0.275622   
O        O      0.179700000000     0.305600000000     0.948200000000    -0.275622   
O        O      0.411400000000     0.798600000000     0.109200000000    -0.275622   
O        O      0.191100000000     0.983600000000     0.196700000000    -0.275622   
O        O      0.484100000000     0.844200000000     0.547200000000    -0.275622   
O        O      0.485300000000     0.694400000000     0.448200000000    -0.275622   
O        O      0.210000000000     0.201400000000     0.609200000000    -0.275622   
O        O      0.174700000000     0.016400000000     0.696700000000    -0.275622   
O        O      0.671700000000     0.844200000000     0.952800000000    -0.275622   
O        O      0.820300000000     0.694400000000     0.051800000000    -0.275622   
O        O      0.588600000000     0.201400000000     0.890800000000    -0.275622   
O        O      0.808900000000     0.016400000000     0.803300000000    -0.275622   


