data_BERGAI_original

_audit_creation_method RASPA-1.0
_audit_creation_date 2022-1-28
_audit_author_name 'Felipe Lopes de Oliveira <felipe.lopes.oliveira@ibm.com>'

_cell_length_a    12.7
_cell_length_b    12.7
_cell_length_c    25.364
_cell_angle_alpha 90
_cell_angle_beta  90
_cell_angle_gamma 90
_cell_volume      4090.96

_symmetry_cell_setting          triclinic
_symmetry_space_group_name_Hall 'P 1'
_symmetry_space_group_name_H-M  'P 1'
_symmetry_Int_Tables_number     1

_symmetry_equiv_pos_as_xyz 'x,y,z'

loop_
_atom_site_label
_atom_site_type_symbol
_atom_site_fract_x
_atom_site_fract_y
_atom_site_fract_z
_atom_site_charge
Zn       Zn     0.038550000000     0.930740000000     0.437530000000     0.391077   
Zn       Zn     0.461450000000     0.569260000000     0.437530000000     0.391077   
Zn       Zn     0.569260000000     0.038550000000     0.437530000000     0.391077   
Zn       Zn     0.930740000000     0.461450000000     0.437530000000     0.391077   
Zn       Zn     0.461450000000     0.930740000000     0.062470000000     0.391077   
Zn       Zn     0.038550000000     0.569260000000     0.062470000000     0.391077   
Zn       Zn     0.930740000000     0.038550000000     0.062470000000     0.391077   
Zn       Zn     0.569260000000     0.461450000000     0.062470000000     0.391077   
Zn       Zn     0.961450000000     0.069260000000     0.562470000000     0.391077   
Zn       Zn     0.538550000000     0.430740000000     0.562470000000     0.391077   
Zn       Zn     0.430740000000     0.961450000000     0.562470000000     0.391077   
Zn       Zn     0.069260000000     0.538550000000     0.562470000000     0.391077   
Zn       Zn     0.538550000000     0.069260000000     0.937530000000     0.391077   
Zn       Zn     0.961450000000     0.430740000000     0.937530000000     0.391077   
Zn       Zn     0.069260000000     0.961450000000     0.937530000000     0.391077   
Zn       Zn     0.430740000000     0.538550000000     0.937530000000     0.391077   
H        H      0.276700000000     0.939700000000     0.468700000000     0.104743   
H        H      0.071300000000     0.927000000000     0.237400000000     0.104743   
H        H      0.183600000000     0.931700000000     0.165600000000     0.104743   
H        H      0.256000000000     0.032300000000     0.645700000000     0.104743   
H        H      0.139500000000     0.044900000000     0.647400000000     0.104743   
H        H      0.223300000000     0.560300000000     0.468700000000     0.104743   
H        H      0.428700000000     0.573000000000     0.237400000000     0.104743   
H        H      0.316400000000     0.568300000000     0.165600000000     0.104743   
H        H      0.244000000000     0.467700000000     0.645700000000     0.104743   
H        H      0.360500000000     0.455100000000     0.647400000000     0.104743   
H        H      0.560300000000     0.276700000000     0.468700000000     0.104743   
H        H      0.573000000000     0.071300000000     0.237400000000     0.104743   
H        H      0.568300000000     0.183600000000     0.165600000000     0.104743   
H        H      0.467700000000     0.256000000000     0.645700000000     0.104743   
H        H      0.455100000000     0.139500000000     0.647400000000     0.104743   
H        H      0.939700000000     0.223300000000     0.468700000000     0.104743   
H        H      0.927000000000     0.428700000000     0.237400000000     0.104743   
H        H      0.931700000000     0.316400000000     0.165600000000     0.104743   
H        H      0.032300000000     0.244000000000     0.645700000000     0.104743   
H        H      0.044900000000     0.360500000000     0.647400000000     0.104743   
H        H      0.223300000000     0.939700000000     0.031300000000     0.104743   
H        H      0.428700000000     0.927000000000     0.262600000000     0.104743   
H        H      0.316400000000     0.931700000000     0.334400000000     0.104743   
H        H      0.244000000000     0.032300000000     0.854300000000     0.104743   
H        H      0.360500000000     0.044900000000     0.852600000000     0.104743   
H        H      0.276700000000     0.560300000000     0.031300000000     0.104743   
H        H      0.071300000000     0.573000000000     0.262600000000     0.104743   
H        H      0.183600000000     0.568300000000     0.334400000000     0.104743   
H        H      0.256000000000     0.467700000000     0.854300000000     0.104743   
H        H      0.139500000000     0.455100000000     0.852600000000     0.104743   
H        H      0.939700000000     0.276700000000     0.031300000000     0.104743   
H        H      0.927000000000     0.071300000000     0.262600000000     0.104743   
H        H      0.931700000000     0.183600000000     0.334400000000     0.104743   
H        H      0.032300000000     0.256000000000     0.854300000000     0.104743   
H        H      0.044900000000     0.139500000000     0.852600000000     0.104743   
H        H      0.560300000000     0.223300000000     0.031300000000     0.104743   
H        H      0.573000000000     0.428700000000     0.262600000000     0.104743   
H        H      0.568300000000     0.316400000000     0.334400000000     0.104743   
H        H      0.467700000000     0.244000000000     0.854300000000     0.104743   
H        H      0.455100000000     0.360500000000     0.852600000000     0.104743   
H        H      0.723300000000     0.060300000000     0.531300000000     0.104743   
H        H      0.928700000000     0.073000000000     0.762600000000     0.104743   
H        H      0.816400000000     0.068300000000     0.834400000000     0.104743   
H        H      0.744000000000     0.967700000000     0.354300000000     0.104743   
H        H      0.860500000000     0.955100000000     0.352600000000     0.104743   
H        H      0.776700000000     0.439700000000     0.531300000000     0.104743   
H        H      0.571300000000     0.427000000000     0.762600000000     0.104743   
H        H      0.683600000000     0.431700000000     0.834400000000     0.104743   
H        H      0.756000000000     0.532300000000     0.354300000000     0.104743   
H        H      0.639500000000     0.544900000000     0.352600000000     0.104743   
H        H      0.439700000000     0.723300000000     0.531300000000     0.104743   
H        H      0.427000000000     0.928700000000     0.762600000000     0.104743   
H        H      0.431700000000     0.816400000000     0.834400000000     0.104743   
H        H      0.532300000000     0.744000000000     0.354300000000     0.104743   
H        H      0.544900000000     0.860500000000     0.352600000000     0.104743   
H        H      0.060300000000     0.776700000000     0.531300000000     0.104743   
H        H      0.073000000000     0.571300000000     0.762600000000     0.104743   
H        H      0.068300000000     0.683600000000     0.834400000000     0.104743   
H        H      0.967700000000     0.756000000000     0.354300000000     0.104743   
H        H      0.955100000000     0.639500000000     0.352600000000     0.104743   
H        H      0.776700000000     0.060300000000     0.968700000000     0.104743   
H        H      0.571300000000     0.073000000000     0.737400000000     0.104743   
H        H      0.683600000000     0.068300000000     0.665600000000     0.104743   
H        H      0.756000000000     0.967700000000     0.145700000000     0.104743   
H        H      0.639500000000     0.955100000000     0.147400000000     0.104743   
H        H      0.723300000000     0.439700000000     0.968700000000     0.104743   
H        H      0.928700000000     0.427000000000     0.737400000000     0.104743   
H        H      0.816400000000     0.431700000000     0.665600000000     0.104743   
H        H      0.744000000000     0.532300000000     0.145700000000     0.104743   
H        H      0.860500000000     0.544900000000     0.147400000000     0.104743   
H        H      0.060300000000     0.723300000000     0.968700000000     0.104743   
H        H      0.073000000000     0.928700000000     0.737400000000     0.104743   
H        H      0.068300000000     0.816400000000     0.665600000000     0.104743   
H        H      0.967700000000     0.744000000000     0.145700000000     0.104743   
H        H      0.955100000000     0.860500000000     0.147400000000     0.104743   
H        H      0.439700000000     0.776700000000     0.968700000000     0.104743   
H        H      0.427000000000     0.571300000000     0.737400000000     0.104743   
H        H      0.431700000000     0.683600000000     0.665600000000     0.104743   
H        H      0.532300000000     0.756000000000     0.145700000000     0.104743   
H        H      0.544900000000     0.639500000000     0.147400000000     0.104743   
C        C      0.190400000000     0.004600000000     0.582450000000     0.0873685  
C        C      0.237000000000     0.958600000000     0.498010000000     0.0873685  
C        C      0.182000000000     0.930600000000     0.292700000000     0.0873685  
C        C      0.143700000000     0.929100000000     0.242800000000     0.0873685  
C        C      0.211000000000     0.930700000000     0.199600000000     0.0873685  
C        C      0.107500000000     0.931100000000     0.338800000000     0.0873685  
C        C      0.309600000000     0.495400000000     0.582450000000     0.0873685  
C        C      0.263000000000     0.541400000000     0.498010000000     0.0873685  
C        C      0.318000000000     0.569400000000     0.292700000000     0.0873685  
C        C      0.356300000000     0.570900000000     0.242800000000     0.0873685  
C        C      0.289000000000     0.569300000000     0.199600000000     0.0873685  
C        C      0.392500000000     0.568900000000     0.338800000000     0.0873685  
C        C      0.495400000000     0.190400000000     0.582450000000     0.0873685  
C        C      0.541400000000     0.237000000000     0.498010000000     0.0873685  
C        C      0.569400000000     0.182000000000     0.292700000000     0.0873685  
C        C      0.570900000000     0.143700000000     0.242800000000     0.0873685  
C        C      0.569300000000     0.211000000000     0.199600000000     0.0873685  
C        C      0.568900000000     0.107500000000     0.338800000000     0.0873685  
C        C      0.004600000000     0.309600000000     0.582450000000     0.0873685  
C        C      0.958600000000     0.263000000000     0.498010000000     0.0873685  
C        C      0.930600000000     0.318000000000     0.292700000000     0.0873685  
C        C      0.929100000000     0.356300000000     0.242800000000     0.0873685  
C        C      0.930700000000     0.289000000000     0.199600000000     0.0873685  
C        C      0.931100000000     0.392500000000     0.338800000000     0.0873685  
C        C      0.309600000000     0.004600000000     0.917550000000     0.0873685  
C        C      0.263000000000     0.958600000000     0.001990000000     0.0873685  
C        C      0.318000000000     0.930600000000     0.207300000000     0.0873685  
C        C      0.356300000000     0.929100000000     0.257200000000     0.0873685  
C        C      0.289000000000     0.930700000000     0.300400000000     0.0873685  
C        C      0.392500000000     0.931100000000     0.161200000000     0.0873685  
C        C      0.190400000000     0.495400000000     0.917550000000     0.0873685  
C        C      0.237000000000     0.541400000000     0.001990000000     0.0873685  
C        C      0.182000000000     0.569400000000     0.207300000000     0.0873685  
C        C      0.143700000000     0.570900000000     0.257200000000     0.0873685  
C        C      0.211000000000     0.569300000000     0.300400000000     0.0873685  
C        C      0.107500000000     0.568900000000     0.161200000000     0.0873685  
C        C      0.004600000000     0.190400000000     0.917550000000     0.0873685  
C        C      0.958600000000     0.237000000000     0.001990000000     0.0873685  
C        C      0.930600000000     0.182000000000     0.207300000000     0.0873685  
C        C      0.929100000000     0.143700000000     0.257200000000     0.0873685  
C        C      0.930700000000     0.211000000000     0.300400000000     0.0873685  
C        C      0.931100000000     0.107500000000     0.161200000000     0.0873685  
C        C      0.495400000000     0.309600000000     0.917550000000     0.0873685  
C        C      0.541400000000     0.263000000000     0.001990000000     0.0873685  
C        C      0.569400000000     0.318000000000     0.207300000000     0.0873685  
C        C      0.570900000000     0.356300000000     0.257200000000     0.0873685  
C        C      0.569300000000     0.289000000000     0.300400000000     0.0873685  
C        C      0.568900000000     0.392500000000     0.161200000000     0.0873685  
C        C      0.809600000000     0.995400000000     0.417550000000     0.0873685  
C        C      0.763000000000     0.041400000000     0.501990000000     0.0873685  
C        C      0.818000000000     0.069400000000     0.707300000000     0.0873685  
C        C      0.856300000000     0.070900000000     0.757200000000     0.0873685  
C        C      0.789000000000     0.069300000000     0.800400000000     0.0873685  
C        C      0.892500000000     0.068900000000     0.661200000000     0.0873685  
C        C      0.690400000000     0.504600000000     0.417550000000     0.0873685  
C        C      0.737000000000     0.458600000000     0.501990000000     0.0873685  
C        C      0.682000000000     0.430600000000     0.707300000000     0.0873685  
C        C      0.643700000000     0.429100000000     0.757200000000     0.0873685  
C        C      0.711000000000     0.430700000000     0.800400000000     0.0873685  
C        C      0.607500000000     0.431100000000     0.661200000000     0.0873685  
C        C      0.504600000000     0.809600000000     0.417550000000     0.0873685  
C        C      0.458600000000     0.763000000000     0.501990000000     0.0873685  
C        C      0.430600000000     0.818000000000     0.707300000000     0.0873685  
C        C      0.429100000000     0.856300000000     0.757200000000     0.0873685  
C        C      0.430700000000     0.789000000000     0.800400000000     0.0873685  
C        C      0.431100000000     0.892500000000     0.661200000000     0.0873685  
C        C      0.995400000000     0.690400000000     0.417550000000     0.0873685  
C        C      0.041400000000     0.737000000000     0.501990000000     0.0873685  
C        C      0.069400000000     0.682000000000     0.707300000000     0.0873685  
C        C      0.070900000000     0.643700000000     0.757200000000     0.0873685  
C        C      0.069300000000     0.711000000000     0.800400000000     0.0873685  
C        C      0.068900000000     0.607500000000     0.661200000000     0.0873685  
C        C      0.690400000000     0.995400000000     0.082450000000     0.0873685  
C        C      0.737000000000     0.041400000000     0.998010000000     0.0873685  
C        C      0.682000000000     0.069400000000     0.792700000000     0.0873685  
C        C      0.643700000000     0.070900000000     0.742800000000     0.0873685  
C        C      0.711000000000     0.069300000000     0.699600000000     0.0873685  
C        C      0.607500000000     0.068900000000     0.838800000000     0.0873685  
C        C      0.809600000000     0.504600000000     0.082450000000     0.0873685  
C        C      0.763000000000     0.458600000000     0.998010000000     0.0873685  
C        C      0.818000000000     0.430600000000     0.792700000000     0.0873685  
C        C      0.856300000000     0.429100000000     0.742800000000     0.0873685  
C        C      0.789000000000     0.430700000000     0.699600000000     0.0873685  
C        C      0.892500000000     0.431100000000     0.838800000000     0.0873685  
C        C      0.995400000000     0.809600000000     0.082450000000     0.0873685  
C        C      0.041400000000     0.763000000000     0.998010000000     0.0873685  
C        C      0.069400000000     0.818000000000     0.792700000000     0.0873685  
C        C      0.070900000000     0.856300000000     0.742800000000     0.0873685  
C        C      0.069300000000     0.789000000000     0.699600000000     0.0873685  
C        C      0.068900000000     0.892500000000     0.838800000000     0.0873685  
C        C      0.504600000000     0.690400000000     0.082450000000     0.0873685  
C        C      0.458600000000     0.737000000000     0.998010000000     0.0873685  
C        C      0.430600000000     0.682000000000     0.792700000000     0.0873685  
C        C      0.429100000000     0.643700000000     0.742800000000     0.0873685  
C        C      0.430700000000     0.711000000000     0.699600000000     0.0873685  
C        C      0.431100000000     0.607500000000     0.838800000000     0.0873685  
N        N      0.097400000000     0.001600000000     0.551400000000    -0.210961   
N        N      0.126200000000     0.973200000000     0.499210000000    -0.210961   
N        N      0.276700000000     0.978000000000     0.549450000000    -0.210961   
N        N      0.195900000000     0.029900000000     0.630200000000    -0.210961   
N        N      0.402600000000     0.498400000000     0.551400000000    -0.210961   
N        N      0.373800000000     0.526800000000     0.499210000000    -0.210961   
N        N      0.223300000000     0.522000000000     0.549450000000    -0.210961   
N        N      0.304100000000     0.470100000000     0.630200000000    -0.210961   
N        N      0.498400000000     0.097400000000     0.551400000000    -0.210961   
N        N      0.526800000000     0.126200000000     0.499210000000    -0.210961   
N        N      0.522000000000     0.276700000000     0.549450000000    -0.210961   
N        N      0.470100000000     0.195900000000     0.630200000000    -0.210961   
N        N      0.001600000000     0.402600000000     0.551400000000    -0.210961   
N        N      0.973200000000     0.373800000000     0.499210000000    -0.210961   
N        N      0.978000000000     0.223300000000     0.549450000000    -0.210961   
N        N      0.029900000000     0.304100000000     0.630200000000    -0.210961   
N        N      0.402600000000     0.001600000000     0.948600000000    -0.210961   
N        N      0.373800000000     0.973200000000     0.000790000000    -0.210961   
N        N      0.223300000000     0.978000000000     0.950550000000    -0.210961   
N        N      0.304100000000     0.029900000000     0.869800000000    -0.210961   
N        N      0.097400000000     0.498400000000     0.948600000000    -0.210961   
N        N      0.126200000000     0.526800000000     0.000790000000    -0.210961   
N        N      0.276700000000     0.522000000000     0.950550000000    -0.210961   
N        N      0.195900000000     0.470100000000     0.869800000000    -0.210961   
N        N      0.001600000000     0.097400000000     0.948600000000    -0.210961   
N        N      0.973200000000     0.126200000000     0.000790000000    -0.210961   
N        N      0.978000000000     0.276700000000     0.950550000000    -0.210961   
N        N      0.029900000000     0.195900000000     0.869800000000    -0.210961   
N        N      0.498400000000     0.402600000000     0.948600000000    -0.210961   
N        N      0.526800000000     0.373800000000     0.000790000000    -0.210961   
N        N      0.522000000000     0.223300000000     0.950550000000    -0.210961   
N        N      0.470100000000     0.304100000000     0.869800000000    -0.210961   
N        N      0.902600000000     0.998400000000     0.448600000000    -0.210961   
N        N      0.873800000000     0.026800000000     0.500790000000    -0.210961   
N        N      0.723300000000     0.022000000000     0.450550000000    -0.210961   
N        N      0.804100000000     0.970100000000     0.369800000000    -0.210961   
N        N      0.597400000000     0.501600000000     0.448600000000    -0.210961   
N        N      0.626200000000     0.473200000000     0.500790000000    -0.210961   
N        N      0.776700000000     0.478000000000     0.450550000000    -0.210961   
N        N      0.695900000000     0.529900000000     0.369800000000    -0.210961   
N        N      0.501600000000     0.902600000000     0.448600000000    -0.210961   
N        N      0.473200000000     0.873800000000     0.500790000000    -0.210961   
N        N      0.478000000000     0.723300000000     0.450550000000    -0.210961   
N        N      0.529900000000     0.804100000000     0.369800000000    -0.210961   
N        N      0.998400000000     0.597400000000     0.448600000000    -0.210961   
N        N      0.026800000000     0.626200000000     0.500790000000    -0.210961   
N        N      0.022000000000     0.776700000000     0.450550000000    -0.210961   
N        N      0.970100000000     0.695900000000     0.369800000000    -0.210961   
N        N      0.597400000000     0.998400000000     0.051400000000    -0.210961   
N        N      0.626200000000     0.026800000000     0.999210000000    -0.210961   
N        N      0.776700000000     0.022000000000     0.049450000000    -0.210961   
N        N      0.695900000000     0.970100000000     0.130200000000    -0.210961   
N        N      0.902600000000     0.501600000000     0.051400000000    -0.210961   
N        N      0.873800000000     0.473200000000     0.999210000000    -0.210961   
N        N      0.723300000000     0.478000000000     0.049450000000    -0.210961   
N        N      0.804100000000     0.529900000000     0.130200000000    -0.210961   
N        N      0.998400000000     0.902600000000     0.051400000000    -0.210961   
N        N      0.026800000000     0.873800000000     0.999210000000    -0.210961   
N        N      0.022000000000     0.723300000000     0.049450000000    -0.210961   
N        N      0.970100000000     0.804100000000     0.130200000000    -0.210961   
N        N      0.501600000000     0.597400000000     0.051400000000    -0.210961   
N        N      0.473200000000     0.626200000000     0.999210000000    -0.210961   
N        N      0.478000000000     0.776700000000     0.049450000000    -0.210961   
N        N      0.529900000000     0.695900000000     0.130200000000    -0.210961   
O        O      0.146400000000     0.949500000000     0.383800000000    -0.297579   
O        O      0.012500000000     0.911900000000     0.332900000000    -0.297579   
O        O      0.353600000000     0.550500000000     0.383800000000    -0.297579   
O        O      0.487500000000     0.588100000000     0.332900000000    -0.297579   
O        O      0.550500000000     0.146400000000     0.383800000000    -0.297579   
O        O      0.588100000000     0.012500000000     0.332900000000    -0.297579   
O        O      0.949500000000     0.353600000000     0.383800000000    -0.297579   
O        O      0.911900000000     0.487500000000     0.332900000000    -0.297579   
O        O      0.353600000000     0.949500000000     0.116200000000    -0.297579   
O        O      0.487500000000     0.911900000000     0.167100000000    -0.297579   
O        O      0.146400000000     0.550500000000     0.116200000000    -0.297579   
O        O      0.012500000000     0.588100000000     0.167100000000    -0.297579   
O        O      0.949500000000     0.146400000000     0.116200000000    -0.297579   
O        O      0.911900000000     0.012500000000     0.167100000000    -0.297579   
O        O      0.550500000000     0.353600000000     0.116200000000    -0.297579   
O        O      0.588100000000     0.487500000000     0.167100000000    -0.297579   
O        O      0.853600000000     0.050500000000     0.616200000000    -0.297579   
O        O      0.987500000000     0.088100000000     0.667100000000    -0.297579   
O        O      0.646400000000     0.449500000000     0.616200000000    -0.297579   
O        O      0.512500000000     0.411900000000     0.667100000000    -0.297579   
O        O      0.449500000000     0.853600000000     0.616200000000    -0.297579   
O        O      0.411900000000     0.987500000000     0.667100000000    -0.297579   
O        O      0.050500000000     0.646400000000     0.616200000000    -0.297579   
O        O      0.088100000000     0.512500000000     0.667100000000    -0.297579   
O        O      0.646400000000     0.050500000000     0.883800000000    -0.297579   
O        O      0.512500000000     0.088100000000     0.832900000000    -0.297579   
O        O      0.853600000000     0.449500000000     0.883800000000    -0.297579   
O        O      0.987500000000     0.411900000000     0.832900000000    -0.297579   
O        O      0.050500000000     0.853600000000     0.883800000000    -0.297579   
O        O      0.088100000000     0.987500000000     0.832900000000    -0.297579   
O        O      0.449500000000     0.646400000000     0.883800000000    -0.297579   
O        O      0.411900000000     0.512500000000     0.832900000000    -0.297579   


