data_BICDAU_original

_audit_creation_method RASPA-1.0
_audit_creation_date 2022-1-30
_audit_author_name 'Felipe Lopes de Oliveira <felipe.lopes.oliveira@ibm.com>'

_cell_length_a    17.75
_cell_length_b    17.75
_cell_length_c    19.192
_cell_angle_alpha 90
_cell_angle_beta  90
_cell_angle_gamma 120
_cell_volume      5236.58

_symmetry_cell_setting          triclinic
_symmetry_space_group_name_Hall 'P 1'
_symmetry_space_group_name_H-M  'P 1'
_symmetry_Int_Tables_number     1

_symmetry_equiv_pos_as_xyz 'x,y,z'

loop_
_atom_site_label
_atom_site_type_symbol
_atom_site_fract_x
_atom_site_fract_y
_atom_site_fract_z
_atom_site_charge
Zn       Zn     0.872880000000     0.504160000000     0.327840000000     0.304118   
Zn       Zn     0.631280000000     0.127120000000     0.327840000000     0.304118   
Zn       Zn     0.495840000000     0.368720000000     0.327840000000     0.304118   
Zn       Zn     0.368720000000     0.495840000000     0.672160000000     0.304118   
Zn       Zn     0.504160000000     0.872880000000     0.672160000000     0.304118   
Zn       Zn     0.127120000000     0.631280000000     0.672160000000     0.304118   
Zn       Zn     0.666670000000     0.333340000000     0.264470000000     0.304118   
Zn       Zn     0.666670000000     0.333340000000     0.077960000000     0.304118   
Zn       Zn     0.333330000000     0.666660000000     0.735530000000     0.304118   
Zn       Zn     0.333330000000     0.666660000000     0.922040000000     0.304118   
H        H      0.794600000000     0.135900000000     0.433000000000     0.0509312  
H        H      0.920600000000     0.199800000000     0.499400000000     0.0509312  
H        H      0.979600000000     0.443200000000     0.439800000000     0.0509312  
H        H      0.859500000000     0.470200000000     0.000500000000     0.0509312  
H        H      0.085400000000     0.653100000000     0.089700000000     0.0509312  
H        H      0.026100000000     0.619100000000     0.200800000000     0.0509312  
H        H      0.341300000000     0.205400000000     0.433000000000     0.0509312  
H        H      0.279200000000     0.079400000000     0.499400000000     0.0509312  
H        H      0.463600000000     0.020400000000     0.439800000000     0.0509312  
H        H      0.610700000000     0.140500000000     0.000500000000     0.0509312  
H        H      0.567700000000     0.914600000000     0.089700000000     0.0509312  
H        H      0.593000000000     0.973900000000     0.200800000000     0.0509312  
H        H      0.864100000000     0.658700000000     0.433000000000     0.0509312  
H        H      0.800200000000     0.720800000000     0.499400000000     0.0509312  
H        H      0.556800000000     0.536400000000     0.439800000000     0.0509312  
H        H      0.529800000000     0.389300000000     0.000500000000     0.0509312  
H        H      0.346900000000     0.432300000000     0.089700000000     0.0509312  
H        H      0.380900000000     0.407000000000     0.200800000000     0.0509312  
H        H      0.658700000000     0.864100000000     0.567000000000     0.0509312  
H        H      0.720800000000     0.800200000000     0.500600000000     0.0509312  
H        H      0.536400000000     0.556800000000     0.560200000000     0.0509312  
H        H      0.389300000000     0.529800000000     0.999500000000     0.0509312  
H        H      0.432300000000     0.346900000000     0.910300000000     0.0509312  
H        H      0.407000000000     0.380900000000     0.799200000000     0.0509312  
H        H      0.135900000000     0.794600000000     0.567000000000     0.0509312  
H        H      0.199800000000     0.920600000000     0.500600000000     0.0509312  
H        H      0.443200000000     0.979600000000     0.560200000000     0.0509312  
H        H      0.470200000000     0.859500000000     0.999500000000     0.0509312  
H        H      0.653100000000     0.085400000000     0.910300000000     0.0509312  
H        H      0.619100000000     0.026100000000     0.799200000000     0.0509312  
H        H      0.205400000000     0.341300000000     0.567000000000     0.0509312  
H        H      0.079400000000     0.279200000000     0.500600000000     0.0509312  
H        H      0.020400000000     0.463600000000     0.560200000000     0.0509312  
H        H      0.140500000000     0.610700000000     0.999500000000     0.0509312  
H        H      0.914600000000     0.567700000000     0.910300000000     0.0509312  
H        H      0.973900000000     0.593000000000     0.799200000000     0.0509312  
C        C      0.867300000000     0.343750000000     0.397470000000    -0.0151887  
C        C      0.811700000000     0.253100000000     0.395440000000    -0.0151887  
C        C      0.831300000000     0.197300000000     0.434200000000    -0.0151887  
C        C      0.905500000000     0.235800000000     0.473300000000    -0.0151887  
C        C      0.961500000000     0.328400000000     0.476730000000    -0.0151887  
C        C      0.942600000000     0.381800000000     0.438560000000    -0.0151887  
C        C      0.905300000000     0.521400000000     0.167160000000    -0.0151887  
C        C      0.857290000000     0.479290000000     0.107860000000    -0.0151887  
C        C      0.892900000000     0.499700000000     0.040360000000    -0.0151887  
C        C      0.978100000000     0.564100000000     0.034830000000    -0.0151887  
C        C      0.026680000000     0.608190000000     0.095280000000    -0.0151887  
C        C      0.992650000000     0.588760000000     0.161120000000    -0.0151887  
C        C      0.476450000000     0.132700000000     0.397470000000    -0.0151887  
C        C      0.441400000000     0.188300000000     0.395440000000    -0.0151887  
C        C      0.366000000000     0.168700000000     0.434200000000    -0.0151887  
C        C      0.330300000000     0.094500000000     0.473300000000    -0.0151887  
C        C      0.366900000000     0.038500000000     0.476730000000    -0.0151887  
C        C      0.439200000000     0.057400000000     0.438560000000    -0.0151887  
C        C      0.616100000000     0.094700000000     0.167160000000    -0.0151887  
C        C      0.622000000000     0.142710000000     0.107860000000    -0.0151887  
C        C      0.606800000000     0.107100000000     0.040360000000    -0.0151887  
C        C      0.586000000000     0.021900000000     0.034830000000    -0.0151887  
C        C      0.581510000000     0.973320000000     0.095280000000    -0.0151887  
C        C      0.596110000000     0.007350000000     0.161120000000    -0.0151887  
C        C      0.656250000000     0.523550000000     0.397470000000    -0.0151887  
C        C      0.746900000000     0.558600000000     0.395440000000    -0.0151887  
C        C      0.802700000000     0.634000000000     0.434200000000    -0.0151887  
C        C      0.764200000000     0.669700000000     0.473300000000    -0.0151887  
C        C      0.671600000000     0.633100000000     0.476730000000    -0.0151887  
C        C      0.618200000000     0.560800000000     0.438560000000    -0.0151887  
C        C      0.478600000000     0.383900000000     0.167160000000    -0.0151887  
C        C      0.520710000000     0.378000000000     0.107860000000    -0.0151887  
C        C      0.500300000000     0.393200000000     0.040360000000    -0.0151887  
C        C      0.435900000000     0.414000000000     0.034830000000    -0.0151887  
C        C      0.391810000000     0.418490000000     0.095280000000    -0.0151887  
C        C      0.411240000000     0.403890000000     0.161120000000    -0.0151887  
C        C      0.523550000000     0.656250000000     0.602530000000    -0.0151887  
C        C      0.558600000000     0.746900000000     0.604560000000    -0.0151887  
C        C      0.634000000000     0.802700000000     0.565800000000    -0.0151887  
C        C      0.669700000000     0.764200000000     0.526700000000    -0.0151887  
C        C      0.633100000000     0.671600000000     0.523270000000    -0.0151887  
C        C      0.560800000000     0.618200000000     0.561440000000    -0.0151887  
C        C      0.383900000000     0.478600000000     0.832840000000    -0.0151887  
C        C      0.378000000000     0.520710000000     0.892140000000    -0.0151887  
C        C      0.393200000000     0.500300000000     0.959640000000    -0.0151887  
C        C      0.414000000000     0.435900000000     0.965170000000    -0.0151887  
C        C      0.418490000000     0.391810000000     0.904720000000    -0.0151887  
C        C      0.403890000000     0.411240000000     0.838880000000    -0.0151887  
C        C      0.343750000000     0.867300000000     0.602530000000    -0.0151887  
C        C      0.253100000000     0.811700000000     0.604560000000    -0.0151887  
C        C      0.197300000000     0.831300000000     0.565800000000    -0.0151887  
C        C      0.235800000000     0.905500000000     0.526700000000    -0.0151887  
C        C      0.328400000000     0.961500000000     0.523270000000    -0.0151887  
C        C      0.381800000000     0.942600000000     0.561440000000    -0.0151887  
C        C      0.521400000000     0.905300000000     0.832840000000    -0.0151887  
C        C      0.479290000000     0.857290000000     0.892140000000    -0.0151887  
C        C      0.499700000000     0.892900000000     0.959640000000    -0.0151887  
C        C      0.564100000000     0.978100000000     0.965170000000    -0.0151887  
C        C      0.608190000000     0.026680000000     0.904720000000    -0.0151887  
C        C      0.588760000000     0.992650000000     0.838880000000    -0.0151887  
C        C      0.132700000000     0.476450000000     0.602530000000    -0.0151887  
C        C      0.188300000000     0.441400000000     0.604560000000    -0.0151887  
C        C      0.168700000000     0.366000000000     0.565800000000    -0.0151887  
C        C      0.094500000000     0.330300000000     0.526700000000    -0.0151887  
C        C      0.038500000000     0.366900000000     0.523270000000    -0.0151887  
C        C      0.057400000000     0.439200000000     0.561440000000    -0.0151887  
C        C      0.094700000000     0.616100000000     0.832840000000    -0.0151887  
C        C      0.142710000000     0.622000000000     0.892140000000    -0.0151887  
C        C      0.107100000000     0.606800000000     0.959640000000    -0.0151887  
C        C      0.021900000000     0.586000000000     0.965170000000    -0.0151887  
C        C      0.973320000000     0.581510000000     0.904720000000    -0.0151887  
C        C      0.007350000000     0.596110000000     0.838880000000    -0.0151887  
N        N      0.744310000000     0.237800000000     0.352940000000    -0.105031   
N        N      0.757390000000     0.314160000000     0.330340000000    -0.105031   
N        N      0.831010000000     0.378860000000     0.356660000000    -0.105031   
N        N      0.852650000000     0.485360000000     0.223280000000    -0.105031   
N        N      0.776040000000     0.423670000000     0.199140000000    -0.105031   
N        N      0.776660000000     0.418300000000     0.130420000000    -0.105031   
N        N      0.493490000000     0.255690000000     0.352940000000    -0.105031   
N        N      0.556770000000     0.242610000000     0.330340000000    -0.105031   
N        N      0.547850000000     0.168990000000     0.356660000000    -0.105031   
N        N      0.632710000000     0.147350000000     0.223280000000    -0.105031   
N        N      0.647630000000     0.223960000000     0.199140000000    -0.105031   
N        N      0.641640000000     0.223340000000     0.130420000000    -0.105031   
N        N      0.762200000000     0.506510000000     0.352940000000    -0.105031   
N        N      0.685840000000     0.443230000000     0.330340000000    -0.105031   
N        N      0.621140000000     0.452150000000     0.356660000000    -0.105031   
N        N      0.514640000000     0.367290000000     0.223280000000    -0.105031   
N        N      0.576330000000     0.352370000000     0.199140000000    -0.105031   
N        N      0.581700000000     0.358360000000     0.130420000000    -0.105031   
N        N      0.506510000000     0.762200000000     0.647060000000    -0.105031   
N        N      0.443230000000     0.685840000000     0.669660000000    -0.105031   
N        N      0.452150000000     0.621140000000     0.643340000000    -0.105031   
N        N      0.367290000000     0.514640000000     0.776720000000    -0.105031   
N        N      0.352370000000     0.576330000000     0.800860000000    -0.105031   
N        N      0.358360000000     0.581700000000     0.869580000000    -0.105031   
N        N      0.237800000000     0.744310000000     0.647060000000    -0.105031   
N        N      0.314160000000     0.757390000000     0.669660000000    -0.105031   
N        N      0.378860000000     0.831010000000     0.643340000000    -0.105031   
N        N      0.485360000000     0.852650000000     0.776720000000    -0.105031   
N        N      0.423670000000     0.776040000000     0.800860000000    -0.105031   
N        N      0.418300000000     0.776660000000     0.869580000000    -0.105031   
N        N      0.255690000000     0.493490000000     0.647060000000    -0.105031   
N        N      0.242610000000     0.556770000000     0.669660000000    -0.105031   
N        N      0.168990000000     0.547850000000     0.643340000000    -0.105031   
N        N      0.147350000000     0.632710000000     0.776720000000    -0.105031   
N        N      0.223960000000     0.647630000000     0.800860000000    -0.105031   
N        N      0.223340000000     0.641640000000     0.869580000000    -0.105031   


