data_BIYTEJ_original

_audit_creation_method RASPA-1.0
_audit_creation_date 2022-1-29
_audit_author_name 'Felipe Lopes de Oliveira <felipe.lopes.oliveira@ibm.com>'

_cell_length_a    11.568
_cell_length_b    14.163
_cell_length_c    14.163
_cell_angle_alpha 120
_cell_angle_beta  90
_cell_angle_gamma 90
_cell_volume      2009.55

_symmetry_cell_setting          triclinic
_symmetry_space_group_name_Hall 'P 1'
_symmetry_space_group_name_H-M  'P 1'
_symmetry_Int_Tables_number     1

_symmetry_equiv_pos_as_xyz 'x,y,z'

loop_
_atom_site_label
_atom_site_type_symbol
_atom_site_fract_x
_atom_site_fract_y
_atom_site_fract_z
_atom_site_charge
Zn       Zn     0.028830000000     0.680990000000     0.532730000000     0.387225   
Zn       Zn     0.362163000000     0.467270000000     0.148260000000     0.387225   
Zn       Zn     0.695497000000     0.851740000000     0.319010000000     0.387225   
Zn       Zn     0.528830000000     0.319010000000     0.467270000000     0.387225   
Zn       Zn     0.862163000000     0.532730000000     0.851740000000     0.387225   
Zn       Zn     0.195497000000     0.148260000000     0.680990000000     0.387225   
H        H      0.906800000000     0.023200000000     0.329000000000     0.0546959  
H        H      0.240133000000     0.671000000000     0.694200000000     0.0546959  
H        H      0.573467000000     0.305800000000     0.976800000000     0.0546959  
H        H      0.406800000000     0.976800000000     0.671000000000     0.0546959  
H        H      0.740133000000     0.329000000000     0.305800000000     0.0546959  
H        H      0.073467000000     0.694200000000     0.023200000000     0.0546959  
H        H      0.076300000000     0.100100000000     0.423000000000     0.0546959  
H        H      0.409633000000     0.577000000000     0.677100000000     0.0546959  
H        H      0.742967000000     0.322900000000     0.899900000000     0.0546959  
H        H      0.576300000000     0.899900000000     0.577000000000     0.0546959  
H        H      0.909633000000     0.423000000000     0.322900000000     0.0546959  
H        H      0.242967000000     0.677100000000     0.100100000000     0.0546959  
C        C      0.860400000000     0.803300000000     0.452500000000     0.0597479  
C        C      0.193733000000     0.547500000000     0.350800000000     0.0597479  
C        C      0.527067000000     0.649200000000     0.196700000000     0.0597479  
C        C      0.360400000000     0.196700000000     0.547500000000     0.0597479  
C        C      0.693733000000     0.452500000000     0.649200000000     0.0597479  
C        C      0.027067000000     0.350800000000     0.803300000000     0.0597479  
C        C      0.931600000000     0.887400000000     0.449100000000     0.0597479  
C        C      0.264933000000     0.550900000000     0.438300000000     0.0597479  
C        C      0.598267000000     0.561700000000     0.112600000000     0.0597479  
C        C      0.431600000000     0.112600000000     0.550900000000     0.0597479  
C        C      0.764933000000     0.449100000000     0.561700000000     0.0597479  
C        C      0.098267000000     0.438300000000     0.887400000000     0.0597479  
C        C      0.032200000000     0.938900000000     0.508700000000     0.0597479  
C        C      0.365533000000     0.491300000000     0.430200000000     0.0597479  
C        C      0.698867000000     0.569800000000     0.061100000000     0.0597479  
C        C      0.532200000000     0.061100000000     0.491300000000     0.0597479  
C        C      0.865533000000     0.508700000000     0.569800000000     0.0597479  
C        C      0.198867000000     0.430200000000     0.938900000000     0.0597479  
C        C      0.091300000000     0.922100000000     0.591700000000     0.0597479  
C        C      0.424633000000     0.408300000000     0.330400000000     0.0597479  
C        C      0.757967000000     0.669600000000     0.077900000000     0.0597479  
C        C      0.591300000000     0.077900000000     0.408300000000     0.0597479  
C        C      0.924633000000     0.591700000000     0.669600000000     0.0597479  
C        C      0.257967000000     0.330400000000     0.922100000000     0.0597479  
C        C      0.937900000000     0.999600000000     0.374200000000     0.0597479  
C        C      0.271233000000     0.625800000000     0.625400000000     0.0597479  
C        C      0.604567000000     0.374600000000     0.000400000000     0.0597479  
C        C      0.437900000000     0.000400000000     0.625800000000     0.0597479  
C        C      0.771233000000     0.374200000000     0.374600000000     0.0597479  
C        C      0.104567000000     0.625400000000     0.999600000000     0.0597479  
C        C      0.039500000000     0.047000000000     0.432500000000     0.0597479  
C        C      0.372833000000     0.567500000000     0.614500000000     0.0597479  
C        C      0.706167000000     0.385500000000     0.953000000000     0.0597479  
C        C      0.539500000000     0.953000000000     0.567500000000     0.0597479  
C        C      0.872833000000     0.432500000000     0.385500000000     0.0597479  
C        C      0.206167000000     0.614500000000     0.047000000000     0.0597479  
N        N      0.878900000000     0.739500000000     0.494300000000    -0.0855104  
N        N      0.212233000000     0.505700000000     0.245200000000    -0.0855104  
N        N      0.545567000000     0.754800000000     0.260500000000    -0.0855104  
N        N      0.378900000000     0.260500000000     0.505700000000    -0.0855104  
N        N      0.712233000000     0.494300000000     0.754800000000    -0.0855104  
N        N      0.045567000000     0.245200000000     0.739500000000    -0.0855104  
N        N      0.781100000000     0.678800000000     0.473100000000    -0.0855104  
N        N      0.114433000000     0.526900000000     0.205700000000    -0.0855104  
N        N      0.447767000000     0.794300000000     0.321200000000    -0.0855104  
N        N      0.281100000000     0.321200000000     0.526900000000    -0.0855104  
N        N      0.614433000000     0.473100000000     0.794300000000    -0.0855104  
N        N      0.947767000000     0.205700000000     0.678800000000    -0.0855104  
N        N      0.707400000000     0.706500000000     0.422500000000    -0.0855104  
N        N      0.040733000000     0.577500000000     0.284000000000    -0.0855104  
N        N      0.374067000000     0.716000000000     0.293500000000    -0.0855104  
N        N      0.207400000000     0.293500000000     0.577500000000    -0.0855104  
N        N      0.540733000000     0.422500000000     0.716000000000    -0.0855104  
N        N      0.874067000000     0.284000000000     0.706500000000    -0.0855104  
N        N      0.755100000000     0.784400000000     0.407500000000    -0.0855104  
N        N      0.088433000000     0.592500000000     0.376900000000    -0.0855104  
N        N      0.421767000000     0.623100000000     0.215600000000    -0.0855104  
N        N      0.255100000000     0.215600000000     0.592500000000    -0.0855104  
N        N      0.588433000000     0.407500000000     0.623100000000    -0.0855104  
N        N      0.921767000000     0.376900000000     0.784400000000    -0.0855104  
N        N      0.885600000000     0.920500000000     0.383400000000    -0.0855104  
N        N      0.218933000000     0.616600000000     0.537100000000    -0.0855104  
N        N      0.552267000000     0.462900000000     0.079500000000    -0.0855104  
N        N      0.385600000000     0.079500000000     0.616600000000    -0.0855104  
N        N      0.718933000000     0.383400000000     0.462900000000    -0.0855104  
N        N      0.052267000000     0.537100000000     0.920500000000    -0.0855104  
N        N      0.084100000000     0.019200000000     0.499700000000    -0.0855104  
N        N      0.417433000000     0.500300000000     0.519500000000    -0.0855104  
N        N      0.750767000000     0.480500000000     0.980800000000    -0.0855104  
N        N      0.584100000000     0.980800000000     0.500300000000    -0.0855104  
N        N      0.917433000000     0.499700000000     0.480500000000    -0.0855104  
N        N      0.250767000000     0.519500000000     0.019200000000    -0.0855104  
N        N      0.098000000000     0.834100000000     0.602800000000    -0.0855104  
N        N      0.431333000000     0.397200000000     0.231300000000    -0.0855104  
N        N      0.764667000000     0.768700000000     0.165900000000    -0.0855104  
N        N      0.598000000000     0.165900000000     0.397200000000    -0.0855104  
N        N      0.931333000000     0.602800000000     0.768700000000    -0.0855104  
N        N      0.264667000000     0.231300000000     0.834100000000    -0.0855104  
N        N      0.168600000000     0.864400000000     0.691100000000    -0.0855104  
N        N      0.501933000000     0.308900000000     0.173300000000    -0.0855104  
N        N      0.835267000000     0.826700000000     0.135600000000    -0.0855104  
N        N      0.668600000000     0.135600000000     0.308900000000    -0.0855104  
N        N      0.001933000000     0.691100000000     0.826700000000    -0.0855104  
N        N      0.335267000000     0.173300000000     0.864400000000    -0.0855104  
N        N      0.200200000000     0.964800000000     0.730100000000    -0.0855104  
N        N      0.533533000000     0.269900000000     0.234700000000    -0.0855104  
N        N      0.866867000000     0.765300000000     0.035200000000    -0.0855104  
N        N      0.700200000000     0.035200000000     0.269900000000    -0.0855104  
N        N      0.033533000000     0.730100000000     0.765300000000    -0.0855104  
N        N      0.366867000000     0.234700000000     0.964800000000    -0.0855104  
N        N      0.154500000000     0.003600000000     0.668600000000    -0.0855104  
N        N      0.487833000000     0.331400000000     0.335000000000    -0.0855104  
N        N      0.821167000000     0.665000000000     0.996400000000    -0.0855104  
N        N      0.654500000000     0.996400000000     0.331400000000    -0.0855104  
N        N      0.987833000000     0.668600000000     0.665000000000    -0.0855104  
N        N      0.321167000000     0.335000000000     0.003600000000    -0.0855104  


