data_BUKMUQ_original

_audit_creation_method RASPA-1.0
_audit_creation_date 2022-1-31
_audit_author_name 'Felipe Lopes de Oliveira <felipe.lopes.oliveira@ibm.com>'

_cell_length_a    10.4465
_cell_length_b    11.7859
_cell_length_c    14.6048
_cell_angle_alpha 90
_cell_angle_beta  90
_cell_angle_gamma 90
_cell_volume      1798.16

_symmetry_cell_setting          triclinic
_symmetry_space_group_name_Hall 'P 1'
_symmetry_space_group_name_H-M  'P 1'
_symmetry_Int_Tables_number     1

_symmetry_equiv_pos_as_xyz 'x,y,z'

loop_
_atom_site_label
_atom_site_type_symbol
_atom_site_fract_x
_atom_site_fract_y
_atom_site_fract_z
_atom_site_charge
Zn       Zn     0.831500000000     0.802000000000     0.826640000000     0.412883   
Zn       Zn     0.668500000000     0.198000000000     0.326640000000     0.412883   
Zn       Zn     0.168500000000     0.302000000000     0.673360000000     0.412883   
Zn       Zn     0.331500000000     0.698000000000     0.173360000000     0.412883   
H        H      0.469800000000     0.479800000000     0.207600000000     0.0440756  
H        H      0.802900000000     0.478700000000     0.067000000000     0.0440756  
H        H      0.539900000000     0.726300000000     0.030900000000     0.0440756  
H        H      0.030200000000     0.520200000000     0.707600000000     0.0440756  
H        H      0.697100000000     0.521300000000     0.567000000000     0.0440756  
H        H      0.960100000000     0.273700000000     0.530900000000     0.0440756  
H        H      0.530200000000     0.979800000000     0.292400000000     0.0440756  
H        H      0.197100000000     0.978700000000     0.433000000000     0.0440756  
H        H      0.460100000000     0.226300000000     0.469100000000     0.0440756  
H        H      0.969800000000     0.020200000000     0.792400000000     0.0440756  
H        H      0.302900000000     0.021300000000     0.933000000000     0.0440756  
H        H      0.039900000000     0.773700000000     0.969100000000     0.0440756  
C        C      0.525570000000     0.514380000000     0.164430000000     0.0935691  
C        C      0.641750000000     0.462670000000     0.145680000000     0.0935691  
C        C      0.722240000000     0.511820000000     0.080820000000     0.0935691  
C        C      0.565900000000     0.658300000000     0.060390000000     0.0935691  
C        C      0.767900000000     0.666320000000     0.966370000000     0.0935691  
C        C      0.682400000000     0.610580000000     0.036490000000     0.0935691  
C        C      0.683300000000     0.359290000000     0.199050000000     0.0935691  
C        C      0.974430000000     0.485620000000     0.664430000000     0.0935691  
C        C      0.858250000000     0.537330000000     0.645680000000     0.0935691  
C        C      0.777760000000     0.488180000000     0.580820000000     0.0935691  
C        C      0.934100000000     0.341700000000     0.560390000000     0.0935691  
C        C      0.732100000000     0.333680000000     0.466370000000     0.0935691  
C        C      0.817600000000     0.389420000000     0.536490000000     0.0935691  
C        C      0.816700000000     0.640710000000     0.699050000000     0.0935691  
C        C      0.474430000000     0.014380000000     0.335570000000     0.0935691  
C        C      0.358250000000     0.962670000000     0.354320000000     0.0935691  
C        C      0.277760000000     0.011820000000     0.419180000000     0.0935691  
C        C      0.434100000000     0.158300000000     0.439610000000     0.0935691  
C        C      0.232100000000     0.166320000000     0.533630000000     0.0935691  
C        C      0.317600000000     0.110580000000     0.463510000000     0.0935691  
C        C      0.316700000000     0.859290000000     0.300950000000     0.0935691  
C        C      0.025570000000     0.985620000000     0.835570000000     0.0935691  
C        C      0.141750000000     0.037330000000     0.854320000000     0.0935691  
C        C      0.222240000000     0.988180000000     0.919180000000     0.0935691  
C        C      0.065900000000     0.841700000000     0.939610000000     0.0935691  
C        C      0.267900000000     0.833680000000     0.033630000000     0.0935691  
C        C      0.182400000000     0.889420000000     0.963510000000     0.0935691  
C        C      0.183300000000     0.140710000000     0.800950000000     0.0935691  
N        N      0.488220000000     0.612240000000     0.123730000000    -0.156039   
N        N      0.011780000000     0.387760000000     0.623730000000    -0.156039   
N        N      0.511780000000     0.112240000000     0.376270000000    -0.156039   
N        N      0.988220000000     0.887760000000     0.876270000000    -0.156039   
O        O      0.716430000000     0.749360000000     0.922330000000    -0.261014   
O        O      0.877880000000     0.632230000000     0.956050000000    -0.261014   
O        O      0.594350000000     0.309900000000     0.243700000000    -0.261014   
O        O      0.796820000000     0.331890000000     0.198350000000    -0.261014   
O        O      0.783570000000     0.250640000000     0.422330000000    -0.261014   
O        O      0.622120000000     0.367770000000     0.456050000000    -0.261014   
O        O      0.905650000000     0.690100000000     0.743700000000    -0.261014   
O        O      0.703180000000     0.668110000000     0.698350000000    -0.261014   
O        O      0.283570000000     0.249360000000     0.577670000000    -0.261014   
O        O      0.122120000000     0.132230000000     0.543950000000    -0.261014   
O        O      0.405650000000     0.809900000000     0.256300000000    -0.261014   
O        O      0.203180000000     0.831890000000     0.301650000000    -0.261014   
O        O      0.216430000000     0.750640000000     0.077670000000    -0.261014   
O        O      0.377880000000     0.867770000000     0.043950000000    -0.261014   
O        O      0.094350000000     0.190100000000     0.756300000000    -0.261014   
O        O      0.296820000000     0.168110000000     0.801650000000    -0.261014   


