data_BUVYIB_original

_audit_creation_method RASPA-1.0
_audit_creation_date 2022-1-31
_audit_author_name 'Felipe Lopes de Oliveira <felipe.lopes.oliveira@ibm.com>'

_cell_length_a    11.8998
_cell_length_b    18.9791
_cell_length_c    18.9792
_cell_angle_alpha 115.752
_cell_angle_beta  102.064
_cell_angle_gamma 102.063
_cell_volume      3550

_symmetry_cell_setting          triclinic
_symmetry_space_group_name_Hall 'P 1'
_symmetry_space_group_name_H-M  'P 1'
_symmetry_Int_Tables_number     1

_symmetry_equiv_pos_as_xyz 'x,y,z'

loop_
_atom_site_label
_atom_site_type_symbol
_atom_site_fract_x
_atom_site_fract_y
_atom_site_fract_z
_atom_site_charge
Fe       Fe     0.000000000000     0.500000000000     0.500000000000     0.744102   
Fe       Fe     0.500000000000     0.500000000000     0.000000000000     0.744102   
Fe       Fe     0.500000000000     0.000000000000     0.500000000000     0.744102   
H        H      0.922100000000     0.684100000000     0.748200000000     0.042182   
H        H      0.772700000000     0.722300000000     0.684800000000     0.042182   
H        H      0.711100000000     0.664500000000     0.539200000000     0.042182   
H        H      0.794900000000     0.573500000000     0.462800000000     0.042182   
H        H      0.326600000000     0.472200000000     0.725500000000     0.042182   
H        H      0.449100000000     0.456100000000     0.823800000000     0.042182   
H        H      0.314000000000     0.583200000000     0.992200000000     0.042182   
H        H      0.187300000000     0.602100000000     0.896800000000     0.042182   
H        H      0.173900000000     0.251800000000     0.935900000000     0.042182   
H        H      0.087900000000     0.315200000000     0.037500000000     0.042182   
H        H      0.171900000000     0.460800000000     0.125300000000     0.042182   
H        H      0.332100000000     0.537200000000     0.110700000000     0.042182   
H        H      0.601100000000     0.274500000000     0.746700000000     0.042182   
H        H      0.625300000000     0.176200000000     0.632300000000     0.042182   
H        H      0.321800000000     0.007800000000     0.591000000000     0.042182   
H        H      0.290500000000     0.103200000000     0.705300000000     0.042182   
H        H      0.238000000000     0.064100000000     0.315900000000     0.042182   
H        H      0.050400000000     0.962500000000     0.277700000000     0.042182   
H        H      0.046600000000     0.874700000000     0.335500000000     0.042182   
H        H      0.221400000000     0.889300000000     0.426500000000     0.042182   
H        H      0.854400000000     0.253300000000     0.527800000000     0.042182   
H        H      0.993000000000     0.367700000000     0.543900000000     0.042182   
H        H      0.730800000000     0.409000000000     0.416800000000     0.042182   
H        H      0.585200000000     0.294700000000     0.397900000000     0.042182   
H        H      0.077900000000     0.315900000000     0.251800000000     0.042182   
H        H      0.227300000000     0.277700000000     0.315200000000     0.042182   
H        H      0.288900000000     0.335500000000     0.460800000000     0.042182   
H        H      0.205100000000     0.426500000000     0.537200000000     0.042182   
H        H      0.673400000000     0.527800000000     0.274500000000     0.042182   
H        H      0.550900000000     0.543900000000     0.176200000000     0.042182   
H        H      0.686000000000     0.416800000000     0.007800000000     0.042182   
H        H      0.812700000000     0.397900000000     0.103200000000     0.042182   
H        H      0.826100000000     0.748200000000     0.064100000000     0.042182   
H        H      0.912100000000     0.684800000000     0.962500000000     0.042182   
H        H      0.828100000000     0.539200000000     0.874700000000     0.042182   
H        H      0.667900000000     0.462800000000     0.889300000000     0.042182   
H        H      0.398900000000     0.725500000000     0.253300000000     0.042182   
H        H      0.374700000000     0.823800000000     0.367700000000     0.042182   
H        H      0.678200000000     0.992200000000     0.409000000000     0.042182   
H        H      0.709500000000     0.896800000000     0.294700000000     0.042182   
H        H      0.762000000000     0.935900000000     0.684100000000     0.042182   
H        H      0.949600000000     0.037500000000     0.722300000000     0.042182   
H        H      0.953400000000     0.125300000000     0.664500000000     0.042182   
H        H      0.778600000000     0.110700000000     0.573500000000     0.042182   
H        H      0.145600000000     0.746700000000     0.472200000000     0.042182   
H        H      0.007000000000     0.632300000000     0.456100000000     0.042182   
H        H      0.269200000000     0.591000000000     0.583200000000     0.042182   
H        H      0.414800000000     0.705300000000     0.602100000000     0.042182   
C        C      0.036500000000     0.578800000000     0.671700000000     0.00884779 
C        C      0.164460000000     0.548070000000     0.735910000000     0.00884779 
C        C      0.942720000000     0.607690000000     0.640770000000     0.00884779 
C        C      0.895100000000     0.662190000000     0.689710000000     0.00884779 
C        C      0.807340000000     0.684630000000     0.652690000000     0.00884779 
C        C      0.771260000000     0.650210000000     0.566570000000     0.00884779 
C        C      0.821750000000     0.596250000000     0.521500000000     0.00884779 
C        C      0.243060000000     0.539150000000     0.799130000000     0.00884779 
C        C      0.322470000000     0.495590000000     0.780020000000     0.00884779 
C        C      0.395170000000     0.486000000000     0.838810000000     0.00884779 
C        C      0.316320000000     0.560260000000     0.937200000000     0.00884779 
C        C      0.240630000000     0.572050000000     0.880740000000     0.00884779 
C        C      0.364800000000     0.328300000000     0.907100000000     0.00884779 
C        C      0.428550000000     0.264090000000     0.812160000000     0.00884779 
C        C      0.301950000000     0.359230000000     0.966920000000     0.00884779 
C        C      0.205390000000     0.310290000000     0.972480000000     0.00884779 
C        C      0.154650000000     0.347310000000     0.031940000000     0.00884779 
C        C      0.204690000000     0.433430000000     0.083640000000     0.00884779 
C        C      0.300250000000     0.478500000000     0.074750000000     0.00884779 
C        C      0.443930000000     0.200870000000     0.740020000000     0.00884779 
C        C      0.542450000000     0.219980000000     0.715570000000     0.00884779 
C        C      0.556360000000     0.161190000000     0.647190000000     0.00884779 
C        C      0.379120000000     0.062800000000     0.623060000000     0.00884779 
C        C      0.359890000000     0.119260000000     0.691310000000     0.00884779 
C        C      0.457700000000     0.092900000000     0.421200000000     0.00884779 
C        C      0.616390000000     0.187840000000     0.451930000000     0.00884779 
C        C      0.335030000000     0.033080000000     0.392310000000     0.00884779 
C        C      0.232910000000     0.027520000000     0.337810000000     0.00884779 
C        C      0.122710000000     0.968060000000     0.315370000000     0.00884779 
C        C      0.121050000000     0.916360000000     0.349790000000     0.00884779 
C        C      0.225500000000     0.925250000000     0.403750000000     0.00884779 
C        C      0.703910000000     0.259980000000     0.460850000000     0.00884779 
C        C      0.826880000000     0.284430000000     0.504410000000     0.00884779 
C        C      0.909170000000     0.352810000000     0.514000000000     0.00884779 
C        C      0.756060000000     0.376940000000     0.439740000000     0.00884779 
C        C      0.668580000000     0.308690000000     0.427950000000     0.00884779 
C        C      0.963500000000     0.421200000000     0.328300000000     0.00884779 
C        C      0.835540000000     0.451930000000     0.264090000000     0.00884779 
C        C      0.057280000000     0.392310000000     0.359230000000     0.00884779 
C        C      0.104900000000     0.337810000000     0.310290000000     0.00884779 
C        C      0.192660000000     0.315370000000     0.347310000000     0.00884779 
C        C      0.228740000000     0.349790000000     0.433430000000     0.00884779 
C        C      0.178250000000     0.403750000000     0.478500000000     0.00884779 
C        C      0.756940000000     0.460850000000     0.200870000000     0.00884779 
C        C      0.677530000000     0.504410000000     0.219980000000     0.00884779 
C        C      0.604830000000     0.514000000000     0.161190000000     0.00884779 
C        C      0.683680000000     0.439740000000     0.062800000000     0.00884779 
C        C      0.759370000000     0.427950000000     0.119260000000     0.00884779 
C        C      0.635200000000     0.671700000000     0.092900000000     0.00884779 
C        C      0.571450000000     0.735910000000     0.187840000000     0.00884779 
C        C      0.698050000000     0.640770000000     0.033080000000     0.00884779 
C        C      0.794610000000     0.689710000000     0.027520000000     0.00884779 
C        C      0.845350000000     0.652690000000     0.968060000000     0.00884779 
C        C      0.795310000000     0.566570000000     0.916360000000     0.00884779 
C        C      0.699750000000     0.521500000000     0.925250000000     0.00884779 
C        C      0.556070000000     0.799130000000     0.259980000000     0.00884779 
C        C      0.457550000000     0.780020000000     0.284430000000     0.00884779 
C        C      0.443640000000     0.838810000000     0.352810000000     0.00884779 
C        C      0.620880000000     0.937200000000     0.376940000000     0.00884779 
C        C      0.640110000000     0.880740000000     0.308690000000     0.00884779 
C        C      0.542300000000     0.907100000000     0.578800000000     0.00884779 
C        C      0.383610000000     0.812160000000     0.548070000000     0.00884779 
C        C      0.664970000000     0.966920000000     0.607690000000     0.00884779 
C        C      0.767090000000     0.972480000000     0.662190000000     0.00884779 
C        C      0.877290000000     0.031940000000     0.684630000000     0.00884779 
C        C      0.878950000000     0.083640000000     0.650210000000     0.00884779 
C        C      0.774500000000     0.074750000000     0.596250000000     0.00884779 
C        C      0.296090000000     0.740020000000     0.539150000000     0.00884779 
C        C      0.173120000000     0.715570000000     0.495590000000     0.00884779 
C        C      0.090830000000     0.647190000000     0.486000000000     0.00884779 
C        C      0.243940000000     0.623060000000     0.560260000000     0.00884779 
C        C      0.331420000000     0.691310000000     0.572050000000     0.00884779 
N        N      0.076910000000     0.529320000000     0.615610000000    -0.163136   
N        N      0.160670000000     0.508280000000     0.656330000000    -0.163136   
N        N      0.088180000000     0.593130000000     0.748510000000    -0.163136   
N        N      0.908210000000     0.573400000000     0.555930000000    -0.163136   
N        N      0.393610000000     0.517630000000     0.918300000000    -0.163136   
N        N      0.461300000000     0.384390000000     0.913710000000    -0.163136   
N        N      0.504340000000     0.343670000000     0.851950000000    -0.163136   
N        N      0.339670000000     0.251490000000     0.844620000000    -0.163136   
N        N      0.352280000000     0.444070000000     0.017470000000    -0.163136   
N        N      0.475310000000     0.081700000000     0.599330000000    -0.163136   
N        N      0.547590000000     0.086290000000     0.470680000000    -0.163136   
N        N      0.652390000000     0.148050000000     0.491720000000    -0.163136   
N        N      0.495050000000     0.155380000000     0.406870000000    -0.163136   
N        N      0.334810000000     0.982530000000     0.426600000000    -0.163136   
N        N      0.875980000000     0.400670000000     0.482370000000    -0.163136   
N        N      0.923090000000     0.470680000000     0.384390000000    -0.163136   
N        N      0.839330000000     0.491720000000     0.343670000000    -0.163136   
N        N      0.911820000000     0.406870000000     0.251490000000    -0.163136   
N        N      0.091790000000     0.426600000000     0.444070000000    -0.163136   
N        N      0.606390000000     0.482370000000     0.081700000000    -0.163136   
N        N      0.538700000000     0.615610000000     0.086290000000    -0.163136   
N        N      0.495660000000     0.656330000000     0.148050000000    -0.163136   
N        N      0.660330000000     0.748510000000     0.155380000000    -0.163136   
N        N      0.647720000000     0.555930000000     0.982530000000    -0.163136   
N        N      0.524690000000     0.918300000000     0.400670000000    -0.163136   
N        N      0.452410000000     0.913710000000     0.529320000000    -0.163136   
N        N      0.347610000000     0.851950000000     0.508280000000    -0.163136   
N        N      0.504950000000     0.844620000000     0.593130000000    -0.163136   
N        N      0.665190000000     0.017470000000     0.573400000000    -0.163136   
N        N      0.124020000000     0.599330000000     0.517630000000    -0.163136   


