data_BUVYEX_original

_audit_creation_method RASPA-1.0
_audit_creation_date 2022-1-29
_audit_author_name 'Felipe Lopes de Oliveira <felipe.lopes.oliveira@ibm.com>'

_cell_length_a    16.145
_cell_length_b    17.9775
_cell_length_c    17.9775
_cell_angle_alpha 111.443
_cell_angle_beta  107.419
_cell_angle_gamma 107.419
_cell_volume      4113.89

_symmetry_cell_setting          triclinic
_symmetry_space_group_name_Hall 'P 1'
_symmetry_space_group_name_H-M  'P 1'
_symmetry_Int_Tables_number     1

_symmetry_equiv_pos_as_xyz 'x,y,z'

loop_
_atom_site_label
_atom_site_type_symbol
_atom_site_fract_x
_atom_site_fract_y
_atom_site_fract_z
_atom_site_charge
Fe       Fe     0.000000000000     0.500000000000     0.000000000000     0.745506   
Fe       Fe     0.500000000000     0.500000000000     0.500000000000     0.745506   
Fe       Fe     0.000000000000     0.000000000000     0.500000000000     0.745506   
Fe       Fe     0.000000000000     0.500000000000     0.500000000000     0.745506   
Fe       Fe     0.500000000000     0.500000000000     0.000000000000     0.745506   
Fe       Fe     0.500000000000     0.000000000000     0.500000000000     0.745506   
H        H      0.848900000000     0.257500000000     0.052700000000     0.0452615  
H        H      0.693900000000     0.185800000000     0.934800000000     0.0452615  
H        H      0.660100000000     0.248500000000     0.842100000000     0.0452615  
H        H      0.780100000000     0.376000000000     0.869400000000     0.0452615  
H        H      0.327600000000     0.566000000000     0.274000000000     0.0452615  
H        H      0.456200000000     0.577500000000     0.381600000000     0.0452615  
H        H      0.282700000000     0.421400000000     0.427300000000     0.0452615  
H        H      0.151200000000     0.406300000000     0.321500000000     0.0452615  
H        H      0.591400000000     0.795200000000     0.742500000000     0.0452615  
H        H      0.508100000000     0.749000000000     0.814200000000     0.0452615  
H        H      0.411600000000     0.593600000000     0.751500000000     0.0452615  
H        H      0.404100000000     0.493400000000     0.624000000000     0.0452615  
H        H      0.761600000000     0.708000000000     0.434000000000     0.0452615  
H        H      0.878700000000     0.804100000000     0.422500000000     0.0452615  
H        H      0.861300000000     0.005900000000     0.578600000000     0.0452615  
H        H      0.744900000000     0.915200000000     0.593700000000     0.0452615  
H        H      0.796200000000     0.947300000000     0.204800000000     0.0452615  
H        H      0.759100000000     0.065200000000     0.251000000000     0.0452615  
H        H      0.818000000000     0.157900000000     0.406400000000     0.0452615  
H        H      0.910700000000     0.130600000000     0.506600000000     0.0452615  
H        H      0.053600000000     0.726000000000     0.292000000000     0.0452615  
H        H      0.074600000000     0.618400000000     0.195900000000     0.0452615  
H        H      0.855400000000     0.572700000000     0.994100000000     0.0452615  
H        H      0.829700000000     0.678500000000     0.084800000000     0.0452615  
H        H      0.151100000000     0.742500000000     0.947300000000     0.0452615  
H        H      0.306100000000     0.814200000000     0.065200000000     0.0452615  
H        H      0.339900000000     0.751500000000     0.157900000000     0.0452615  
H        H      0.219900000000     0.624000000000     0.130600000000     0.0452615  
H        H      0.672400000000     0.434000000000     0.726000000000     0.0452615  
H        H      0.543800000000     0.422500000000     0.618400000000     0.0452615  
H        H      0.717300000000     0.578600000000     0.572700000000     0.0452615  
H        H      0.848800000000     0.593700000000     0.678500000000     0.0452615  
H        H      0.408600000000     0.204800000000     0.257500000000     0.0452615  
H        H      0.491900000000     0.251000000000     0.185800000000     0.0452615  
H        H      0.588400000000     0.406400000000     0.248500000000     0.0452615  
H        H      0.595900000000     0.506600000000     0.376000000000     0.0452615  
H        H      0.238400000000     0.292000000000     0.566000000000     0.0452615  
H        H      0.121300000000     0.195900000000     0.577500000000     0.0452615  
H        H      0.138700000000     0.994100000000     0.421400000000     0.0452615  
H        H      0.255100000000     0.084800000000     0.406300000000     0.0452615  
H        H      0.203800000000     0.052700000000     0.795200000000     0.0452615  
H        H      0.240900000000     0.934800000000     0.749000000000     0.0452615  
H        H      0.182000000000     0.842100000000     0.593600000000     0.0452615  
H        H      0.089300000000     0.869400000000     0.493400000000     0.0452615  
H        H      0.946400000000     0.274000000000     0.708000000000     0.0452615  
H        H      0.925400000000     0.381600000000     0.804100000000     0.0452615  
H        H      0.144600000000     0.427300000000     0.005900000000     0.0452615  
H        H      0.170300000000     0.321500000000     0.915200000000     0.0452615  
H        H      0.908600000000     0.257500000000     0.204800000000     0.0452615  
H        H      0.991900000000     0.185800000000     0.251000000000     0.0452615  
H        H      0.088400000000     0.248500000000     0.406400000000     0.0452615  
H        H      0.095900000000     0.376000000000     0.506600000000     0.0452615  
H        H      0.738400000000     0.566000000000     0.292000000000     0.0452615  
H        H      0.621300000000     0.577500000000     0.195900000000     0.0452615  
H        H      0.638700000000     0.421400000000     0.994100000000     0.0452615  
H        H      0.755100000000     0.406300000000     0.084800000000     0.0452615  
H        H      0.703800000000     0.795200000000     0.052700000000     0.0452615  
H        H      0.740900000000     0.749000000000     0.934800000000     0.0452615  
H        H      0.682000000000     0.593600000000     0.842100000000     0.0452615  
H        H      0.589300000000     0.493400000000     0.869400000000     0.0452615  
H        H      0.446400000000     0.708000000000     0.274000000000     0.0452615  
H        H      0.425400000000     0.804100000000     0.381600000000     0.0452615  
H        H      0.644600000000     0.005900000000     0.427300000000     0.0452615  
H        H      0.670300000000     0.915200000000     0.321500000000     0.0452615  
H        H      0.651100000000     0.947300000000     0.742500000000     0.0452615  
H        H      0.806100000000     0.065200000000     0.814200000000     0.0452615  
H        H      0.839900000000     0.157900000000     0.751500000000     0.0452615  
H        H      0.719900000000     0.130600000000     0.624000000000     0.0452615  
H        H      0.172400000000     0.726000000000     0.434000000000     0.0452615  
H        H      0.043800000000     0.618400000000     0.422500000000     0.0452615  
H        H      0.217300000000     0.572700000000     0.578600000000     0.0452615  
H        H      0.348800000000     0.678500000000     0.593700000000     0.0452615  
H        H      0.091400000000     0.742500000000     0.795200000000     0.0452615  
H        H      0.008100000000     0.814200000000     0.749000000000     0.0452615  
H        H      0.911600000000     0.751500000000     0.593600000000     0.0452615  
H        H      0.904100000000     0.624000000000     0.493400000000     0.0452615  
H        H      0.261600000000     0.434000000000     0.708000000000     0.0452615  
H        H      0.378700000000     0.422500000000     0.804100000000     0.0452615  
H        H      0.361300000000     0.578600000000     0.005900000000     0.0452615  
H        H      0.244900000000     0.593700000000     0.915200000000     0.0452615  
H        H      0.296200000000     0.204800000000     0.947300000000     0.0452615  
H        H      0.259100000000     0.251000000000     0.065200000000     0.0452615  
H        H      0.318000000000     0.406400000000     0.157900000000     0.0452615  
H        H      0.410700000000     0.506600000000     0.130600000000     0.0452615  
H        H      0.553600000000     0.292000000000     0.726000000000     0.0452615  
H        H      0.574600000000     0.195900000000     0.618400000000     0.0452615  
H        H      0.355400000000     0.994100000000     0.572700000000     0.0452615  
H        H      0.329700000000     0.084800000000     0.678500000000     0.0452615  
H        H      0.348900000000     0.052700000000     0.257500000000     0.0452615  
H        H      0.193900000000     0.934800000000     0.185800000000     0.0452615  
H        H      0.160100000000     0.842100000000     0.248500000000     0.0452615  
H        H      0.280100000000     0.869400000000     0.376000000000     0.0452615  
H        H      0.827600000000     0.274000000000     0.566000000000     0.0452615  
H        H      0.956200000000     0.381600000000     0.577500000000     0.0452615  
H        H      0.782700000000     0.427300000000     0.421400000000     0.0452615  
H        H      0.651200000000     0.321500000000     0.406300000000     0.0452615  
C        C      0.004000000000     0.407200000000     0.095900000000     0.00858351 
C        C      0.141200000000     0.463900000000     0.202700000000     0.00858351 
C        C      0.902800000000     0.356800000000     0.025400000000     0.00858351 
C        C      0.833100000000     0.279700000000     0.014000000000     0.00858351 
C        C      0.742100000000     0.238000000000     0.945300000000     0.00858351 
C        C      0.722200000000     0.275500000000     0.889800000000     0.00858351 
C        C      0.794700000000     0.351700000000     0.906300000000     0.00858351 
C        C      0.223300000000     0.479100000000     0.279600000000     0.00858351 
C        C      0.316200000000     0.533600000000     0.303100000000     0.00858351 
C        C      0.393400000000     0.540900000000     0.369000000000     0.00858351 
C        C      0.293200000000     0.450900000000     0.395400000000     0.00858351 
C        C      0.213300000000     0.440300000000     0.330700000000     0.00858351 
C        C      0.596800000000     0.688700000000     0.592800000000     0.00858351 
C        C      0.677300000000     0.738800000000     0.536100000000     0.00858351 
C        C      0.546000000000     0.668600000000     0.643200000000     0.00858351 
C        C      0.553400000000     0.734300000000     0.720300000000     0.00858351 
C        C      0.504100000000     0.707300000000     0.762000000000     0.00858351 
C        C      0.446700000000     0.614300000000     0.724500000000     0.00858351 
C        C      0.443000000000     0.554600000000     0.648300000000     0.00858351 
C        C      0.744200000000     0.800500000000     0.520900000000     0.00858351 
C        C      0.782600000000     0.769500000000     0.466400000000     0.00858351 
C        C      0.852500000000     0.828100000000     0.459100000000     0.00858351 
C        C      0.842300000000     0.944500000000     0.549100000000     0.00858351 
C        C      0.773000000000     0.890400000000     0.559700000000     0.00858351 
C        C      0.908100000000     0.904100000000     0.311300000000     0.00858351 
C        C      0.938500000000     0.797300000000     0.261200000000     0.00858351 
C        C      0.877400000000     0.974600000000     0.331400000000     0.00858351 
C        C      0.819100000000     0.986000000000     0.265700000000     0.00858351 
C        C      0.796800000000     0.054700000000     0.292700000000     0.00858351 
C        C      0.832400000000     0.110200000000     0.385700000000     0.00858351 
C        C      0.888400000000     0.093700000000     0.445400000000     0.00858351 
C        C      0.943700000000     0.720400000000     0.199500000000     0.00858351 
C        C      0.013100000000     0.696900000000     0.230500000000     0.00858351 
C        C      0.024400000000     0.631000000000     0.171900000000     0.00858351 
C        C      0.897800000000     0.604600000000     0.055500000000     0.00858351 
C        C      0.882600000000     0.669300000000     0.109600000000     0.00858351 
C        C      0.996000000000     0.592800000000     0.904100000000     0.00858351 
C        C      0.858800000000     0.536100000000     0.797300000000     0.00858351 
C        C      0.097200000000     0.643200000000     0.974600000000     0.00858351 
C        C      0.166900000000     0.720300000000     0.986000000000     0.00858351 
C        C      0.257900000000     0.762000000000     0.054700000000     0.00858351 
C        C      0.277800000000     0.724500000000     0.110200000000     0.00858351 
C        C      0.205300000000     0.648300000000     0.093700000000     0.00858351 
C        C      0.776700000000     0.520900000000     0.720400000000     0.00858351 
C        C      0.683800000000     0.466400000000     0.696900000000     0.00858351 
C        C      0.606600000000     0.459100000000     0.631000000000     0.00858351 
C        C      0.706800000000     0.549100000000     0.604600000000     0.00858351 
C        C      0.786700000000     0.559700000000     0.669300000000     0.00858351 
C        C      0.403200000000     0.311300000000     0.407200000000     0.00858351 
C        C      0.322700000000     0.261200000000     0.463900000000     0.00858351 
C        C      0.454000000000     0.331400000000     0.356800000000     0.00858351 
C        C      0.446600000000     0.265700000000     0.279700000000     0.00858351 
C        C      0.495900000000     0.292700000000     0.238000000000     0.00858351 
C        C      0.553300000000     0.385700000000     0.275500000000     0.00858351 
C        C      0.557000000000     0.445400000000     0.351700000000     0.00858351 
C        C      0.255800000000     0.199500000000     0.479100000000     0.00858351 
C        C      0.217400000000     0.230500000000     0.533600000000     0.00858351 
C        C      0.147500000000     0.171900000000     0.540900000000     0.00858351 
C        C      0.157700000000     0.055500000000     0.450900000000     0.00858351 
C        C      0.227000000000     0.109600000000     0.440300000000     0.00858351 
C        C      0.091900000000     0.095900000000     0.688700000000     0.00858351 
C        C      0.061500000000     0.202700000000     0.738800000000     0.00858351 
C        C      0.122600000000     0.025400000000     0.668600000000     0.00858351 
C        C      0.180900000000     0.014000000000     0.734300000000     0.00858351 
C        C      0.203200000000     0.945300000000     0.707300000000     0.00858351 
C        C      0.167600000000     0.889800000000     0.614300000000     0.00858351 
C        C      0.111600000000     0.906300000000     0.554600000000     0.00858351 
C        C      0.056300000000     0.279600000000     0.800500000000     0.00858351 
C        C      0.986900000000     0.303100000000     0.769500000000     0.00858351 
C        C      0.975600000000     0.369000000000     0.828100000000     0.00858351 
C        C      0.102200000000     0.395400000000     0.944500000000     0.00858351 
C        C      0.117400000000     0.330700000000     0.890400000000     0.00858351 
C        C      0.903200000000     0.407200000000     0.311300000000     0.00858351 
C        C      0.822700000000     0.463900000000     0.261200000000     0.00858351 
C        C      0.954000000000     0.356800000000     0.331400000000     0.00858351 
C        C      0.946600000000     0.279700000000     0.265700000000     0.00858351 
C        C      0.995900000000     0.238000000000     0.292700000000     0.00858351 
C        C      0.053300000000     0.275500000000     0.385700000000     0.00858351 
C        C      0.057000000000     0.351700000000     0.445400000000     0.00858351 
C        C      0.755800000000     0.479100000000     0.199500000000     0.00858351 
C        C      0.717400000000     0.533600000000     0.230500000000     0.00858351 
C        C      0.647500000000     0.540900000000     0.171900000000     0.00858351 
C        C      0.657700000000     0.450900000000     0.055500000000     0.00858351 
C        C      0.727000000000     0.440300000000     0.109600000000     0.00858351 
C        C      0.591900000000     0.688700000000     0.095900000000     0.00858351 
C        C      0.561500000000     0.738800000000     0.202700000000     0.00858351 
C        C      0.622600000000     0.668600000000     0.025400000000     0.00858351 
C        C      0.680900000000     0.734300000000     0.014000000000     0.00858351 
C        C      0.703200000000     0.707300000000     0.945300000000     0.00858351 
C        C      0.667600000000     0.614300000000     0.889800000000     0.00858351 
C        C      0.611600000000     0.554600000000     0.906300000000     0.00858351 
C        C      0.556300000000     0.800500000000     0.279600000000     0.00858351 
C        C      0.486900000000     0.769500000000     0.303100000000     0.00858351 
C        C      0.475600000000     0.828100000000     0.369000000000     0.00858351 
C        C      0.602200000000     0.944500000000     0.395400000000     0.00858351 
C        C      0.617400000000     0.890400000000     0.330700000000     0.00858351 
C        C      0.496000000000     0.904100000000     0.592800000000     0.00858351 
C        C      0.358800000000     0.797300000000     0.536100000000     0.00858351 
C        C      0.597200000000     0.974600000000     0.643200000000     0.00858351 
C        C      0.666900000000     0.986000000000     0.720300000000     0.00858351 
C        C      0.757900000000     0.054700000000     0.762000000000     0.00858351 
C        C      0.777800000000     0.110200000000     0.724500000000     0.00858351 
C        C      0.705300000000     0.093700000000     0.648300000000     0.00858351 
C        C      0.276700000000     0.720400000000     0.520900000000     0.00858351 
C        C      0.183800000000     0.696900000000     0.466400000000     0.00858351 
C        C      0.106600000000     0.631000000000     0.459100000000     0.00858351 
C        C      0.206800000000     0.604600000000     0.549100000000     0.00858351 
C        C      0.286700000000     0.669300000000     0.559700000000     0.00858351 
C        C      0.096800000000     0.592800000000     0.688700000000     0.00858351 
C        C      0.177300000000     0.536100000000     0.738800000000     0.00858351 
C        C      0.046000000000     0.643200000000     0.668600000000     0.00858351 
C        C      0.053400000000     0.720300000000     0.734300000000     0.00858351 
C        C      0.004100000000     0.762000000000     0.707300000000     0.00858351 
C        C      0.946700000000     0.724500000000     0.614300000000     0.00858351 
C        C      0.943000000000     0.648300000000     0.554600000000     0.00858351 
C        C      0.244200000000     0.520900000000     0.800500000000     0.00858351 
C        C      0.282600000000     0.466400000000     0.769500000000     0.00858351 
C        C      0.352500000000     0.459100000000     0.828100000000     0.00858351 
C        C      0.342300000000     0.549100000000     0.944500000000     0.00858351 
C        C      0.273000000000     0.559700000000     0.890400000000     0.00858351 
C        C      0.408100000000     0.311300000000     0.904100000000     0.00858351 
C        C      0.438500000000     0.261200000000     0.797300000000     0.00858351 
C        C      0.377400000000     0.331400000000     0.974600000000     0.00858351 
C        C      0.319100000000     0.265700000000     0.986000000000     0.00858351 
C        C      0.296800000000     0.292700000000     0.054700000000     0.00858351 
C        C      0.332400000000     0.385700000000     0.110200000000     0.00858351 
C        C      0.388400000000     0.445400000000     0.093700000000     0.00858351 
C        C      0.443700000000     0.199500000000     0.720400000000     0.00858351 
C        C      0.513100000000     0.230500000000     0.696900000000     0.00858351 
C        C      0.524400000000     0.171900000000     0.631000000000     0.00858351 
C        C      0.397800000000     0.055500000000     0.604600000000     0.00858351 
C        C      0.382600000000     0.109600000000     0.669300000000     0.00858351 
C        C      0.504000000000     0.095900000000     0.407200000000     0.00858351 
C        C      0.641200000000     0.202700000000     0.463900000000     0.00858351 
C        C      0.402800000000     0.025400000000     0.356800000000     0.00858351 
C        C      0.333100000000     0.014000000000     0.279700000000     0.00858351 
C        C      0.242100000000     0.945300000000     0.238000000000     0.00858351 
C        C      0.222200000000     0.889800000000     0.275500000000     0.00858351 
C        C      0.294700000000     0.906300000000     0.351700000000     0.00858351 
C        C      0.723300000000     0.279600000000     0.479100000000     0.00858351 
C        C      0.816200000000     0.303100000000     0.533600000000     0.00858351 
C        C      0.893400000000     0.369000000000     0.540900000000     0.00858351 
C        C      0.793200000000     0.395400000000     0.450900000000     0.00858351 
C        C      0.713300000000     0.330700000000     0.440300000000     0.00858351 
N        N      0.062400000000     0.478000000000     0.095000000000    -0.167569   
N        N      0.151100000000     0.512900000000     0.163900000000    -0.167569   
N        N      0.050700000000     0.396100000000     0.163100000000    -0.167569   
N        N      0.884900000000     0.392500000000     0.972600000000    -0.167569   
N        N      0.385000000000     0.499900000000     0.416300000000    -0.167569   
N        N      0.584400000000     0.617000000000     0.522000000000    -0.167569   
N        N      0.638200000000     0.651000000000     0.487100000000    -0.167569   
N        N      0.654600000000     0.767000000000     0.603900000000    -0.167569   
N        N      0.492400000000     0.580100000000     0.607500000000    -0.167569   
N        N      0.885100000000     0.916400000000     0.500100000000    -0.167569   
N        N      0.967400000000     0.905000000000     0.383000000000    -0.167569   
N        N      0.987200000000     0.836100000000     0.349000000000    -0.167569   
N        N      0.887600000000     0.836900000000     0.233000000000    -0.167569   
N        N      0.912300000000     0.027400000000     0.419900000000    -0.167569   
N        N      0.968700000000     0.583700000000     0.083600000000    -0.167569   
N        N      0.937600000000     0.522000000000     0.905000000000    -0.167569   
N        N      0.848900000000     0.487100000000     0.836100000000    -0.167569   
N        N      0.949300000000     0.603900000000     0.836900000000    -0.167569   
N        N      0.115100000000     0.607500000000     0.027400000000    -0.167569   
N        N      0.615000000000     0.500100000000     0.583700000000    -0.167569   
N        N      0.415600000000     0.383000000000     0.478000000000    -0.167569   
N        N      0.361800000000     0.349000000000     0.512900000000    -0.167569   
N        N      0.345400000000     0.233000000000     0.396100000000    -0.167569   
N        N      0.507600000000     0.419900000000     0.392500000000    -0.167569   
N        N      0.114900000000     0.083600000000     0.499900000000    -0.167569   
N        N      0.032600000000     0.095000000000     0.617000000000    -0.167569   
N        N      0.012800000000     0.163900000000     0.651000000000    -0.167569   
N        N      0.112400000000     0.163100000000     0.767000000000    -0.167569   
N        N      0.087700000000     0.972600000000     0.580100000000    -0.167569   
N        N      0.031300000000     0.416300000000     0.916400000000    -0.167569   
N        N      0.915600000000     0.478000000000     0.383000000000    -0.167569   
N        N      0.861800000000     0.512900000000     0.349000000000    -0.167569   
N        N      0.845400000000     0.396100000000     0.233000000000    -0.167569   
N        N      0.007600000000     0.392500000000     0.419900000000    -0.167569   
N        N      0.614900000000     0.499900000000     0.083600000000    -0.167569   
N        N      0.532600000000     0.617000000000     0.095000000000    -0.167569   
N        N      0.512800000000     0.651000000000     0.163900000000    -0.167569   
N        N      0.612400000000     0.767000000000     0.163100000000    -0.167569   
N        N      0.587700000000     0.580100000000     0.972600000000    -0.167569   
N        N      0.531300000000     0.916400000000     0.416300000000    -0.167569   
N        N      0.437600000000     0.905000000000     0.522000000000    -0.167569   
N        N      0.348900000000     0.836100000000     0.487100000000    -0.167569   
N        N      0.449300000000     0.836900000000     0.603900000000    -0.167569   
N        N      0.615100000000     0.027400000000     0.607500000000    -0.167569   
N        N      0.115000000000     0.583700000000     0.500100000000    -0.167569   
N        N      0.084400000000     0.522000000000     0.617000000000    -0.167569   
N        N      0.138200000000     0.487100000000     0.651000000000    -0.167569   
N        N      0.154600000000     0.603900000000     0.767000000000    -0.167569   
N        N      0.992400000000     0.607500000000     0.580100000000    -0.167569   
N        N      0.385100000000     0.500100000000     0.916400000000    -0.167569   
N        N      0.467400000000     0.383000000000     0.905000000000    -0.167569   
N        N      0.487200000000     0.349000000000     0.836100000000    -0.167569   
N        N      0.387600000000     0.233000000000     0.836900000000    -0.167569   
N        N      0.412300000000     0.419900000000     0.027400000000    -0.167569   
N        N      0.468700000000     0.083600000000     0.583700000000    -0.167569   
N        N      0.562400000000     0.095000000000     0.478000000000    -0.167569   
N        N      0.651100000000     0.163900000000     0.512900000000    -0.167569   
N        N      0.550700000000     0.163100000000     0.396100000000    -0.167569   
N        N      0.384900000000     0.972600000000     0.392500000000    -0.167569   
N        N      0.885000000000     0.416300000000     0.499900000000    -0.167569   


