data_CADPII_original

_audit_creation_method RASPA-1.0
_audit_creation_date 2022-1-30
_audit_author_name 'Felipe Lopes de Oliveira <felipe.lopes.oliveira@ibm.com>'

_cell_length_a    6.928
_cell_length_b    17.5648
_cell_length_c    17.5648
_cell_angle_alpha 118.299
_cell_angle_beta  97.5549
_cell_angle_gamma 97.5547
_cell_volume      1819.08

_symmetry_cell_setting          triclinic
_symmetry_space_group_name_Hall 'P 1'
_symmetry_space_group_name_H-M  'P 1'
_symmetry_Int_Tables_number     1

_symmetry_equiv_pos_as_xyz 'x,y,z'

loop_
_atom_site_label
_atom_site_type_symbol
_atom_site_fract_x
_atom_site_fract_y
_atom_site_fract_z
_atom_site_charge
Zn       Zn     0.453970000000     0.709100000000     0.718750000000     0.483698   
Zn       Zn     0.093840000000     0.535540000000     0.661580000000     0.483698   
Zn       Zn     0.735220000000     0.281250000000     0.990350000000     0.483698   
Zn       Zn     0.432260000000     0.338420000000     0.873960000000     0.483698   
Zn       Zn     0.744870000000     0.009650000000     0.290900000000     0.483698   
Zn       Zn     0.558300000000     0.126040000000     0.464460000000     0.483698   
Zn       Zn     0.244870000000     0.290900000000     0.009650000000     0.483698   
Zn       Zn     0.058300000000     0.464460000000     0.126040000000     0.483698   
Zn       Zn     0.953970000000     0.718750000000     0.709100000000     0.483698   
Zn       Zn     0.593840000000     0.661580000000     0.535540000000     0.483698   
Zn       Zn     0.235220000000     0.990350000000     0.281250000000     0.483698   
Zn       Zn     0.932260000000     0.873960000000     0.338420000000     0.483698   
H        H      0.147800000000     0.643300000000     0.600800000000     0.128158   
H        H      0.997500000000     0.409100000000     0.699700000000     0.128158   
H        H      0.578100000000     0.995100000000     0.789600000000     0.128158   
H        H      0.324000000000     0.855200000000     0.528100000000     0.128158   
H        H      0.449600000000     0.122400000000     0.656900000000     0.128158   
H        H      0.547000000000     0.399200000000     0.042500000000     0.128158   
H        H      0.297800000000     0.300300000000     0.709400000000     0.128158   
H        H      0.788500000000     0.210400000000     0.205500000000     0.128158   
H        H      0.795900000000     0.471900000000     0.327100000000     0.128158   
H        H      0.792700000000     0.343100000000     0.465500000000     0.128158   
H        H      0.504500000000     0.957500000000     0.356700000000     0.128158   
H        H      0.588400000000     0.290600000000     0.590900000000     0.128158   
H        H      0.583000000000     0.794500000000     0.004900000000     0.128158   
H        H      0.468800000000     0.672900000000     0.144800000000     0.128158   
H        H      0.327200000000     0.534500000000     0.877600000000     0.128158   
H        H      0.004500000000     0.356700000000     0.957500000000     0.128158   
H        H      0.088400000000     0.590900000000     0.290600000000     0.128158   
H        H      0.083000000000     0.004900000000     0.794500000000     0.128158   
H        H      0.968800000000     0.144800000000     0.672900000000     0.128158   
H        H      0.827200000000     0.877600000000     0.534500000000     0.128158   
H        H      0.647800000000     0.600800000000     0.643300000000     0.128158   
H        H      0.497500000000     0.699700000000     0.409100000000     0.128158   
H        H      0.078100000000     0.789600000000     0.995100000000     0.128158   
H        H      0.824000000000     0.528100000000     0.855200000000     0.128158   
H        H      0.949600000000     0.656900000000     0.122400000000     0.128158   
H        H      0.047000000000     0.042500000000     0.399200000000     0.128158   
H        H      0.797800000000     0.709400000000     0.300300000000     0.128158   
H        H      0.288500000000     0.205500000000     0.210400000000     0.128158   
H        H      0.295900000000     0.327100000000     0.471900000000     0.128158   
H        H      0.292700000000     0.465500000000     0.343100000000     0.128158   
C        C      0.524600000000     0.071560000000     0.735640000000     0.0832192  
C        C      0.452350000000     0.912430000000     0.659120000000     0.0832192  
C        C      0.374790000000     0.988300000000     0.578870000000     0.0832192  
C        C      0.527080000000     0.993510000000     0.737130000000     0.0832192  
C        C      0.375030000000     0.909440000000     0.579850000000     0.0832192  
C        C      0.455300000000     0.826490000000     0.657910000000     0.0832192  
C        C      0.449870000000     0.069710000000     0.657300000000     0.0832192  
C        C      0.284550000000     0.986190000000     0.495660000000     0.0832192  
C        C      0.596430000000     0.159700000000     0.819490000000     0.0832192  
C        C      0.788960000000     0.264360000000     0.335920000000     0.0832192  
C        C      0.793230000000     0.340880000000     0.253310000000     0.0832192  
C        C      0.795920000000     0.421130000000     0.409430000000     0.0832192  
C        C      0.789950000000     0.262870000000     0.256380000000     0.0832192  
C        C      0.795180000000     0.420150000000     0.329590000000     0.0832192  
C        C      0.797390000000     0.342090000000     0.168580000000     0.0832192  
C        C      0.792570000000     0.342700000000     0.412410000000     0.0832192  
C        C      0.788890000000     0.504340000000     0.490530000000     0.0832192  
C        C      0.776940000000     0.180510000000     0.340210000000     0.0832192  
C        C      0.453040000000     0.664080000000     0.928440000000     0.0832192  
C        C      0.539920000000     0.746690000000     0.087570000000     0.0832192  
C        C      0.386490000000     0.590570000000     0.011700000000     0.0832192  
C        C      0.533570000000     0.743620000000     0.006490000000     0.0832192  
C        C      0.465590000000     0.670410000000     0.090560000000     0.0832192  
C        C      0.628810000000     0.831420000000     0.173510000000     0.0832192  
C        C      0.380160000000     0.587590000000     0.930290000000     0.0832192  
C        C      0.298360000000     0.509470000000     0.013810000000     0.0832192  
C        C      0.436730000000     0.659790000000     0.840300000000     0.0832192  
C        C      0.953040000000     0.928440000000     0.664080000000     0.0832192  
C        C      0.039920000000     0.087570000000     0.746690000000     0.0832192  
C        C      0.886490000000     0.011700000000     0.590570000000     0.0832192  
C        C      0.033570000000     0.006490000000     0.743620000000     0.0832192  
C        C      0.965590000000     0.090560000000     0.670410000000     0.0832192  
C        C      0.128810000000     0.173510000000     0.831420000000     0.0832192  
C        C      0.880160000000     0.930290000000     0.587590000000     0.0832192  
C        C      0.798360000000     0.013810000000     0.509470000000     0.0832192  
C        C      0.936730000000     0.840300000000     0.659790000000     0.0832192  
C        C      0.024600000000     0.735640000000     0.071560000000     0.0832192  
C        C      0.952350000000     0.659120000000     0.912430000000     0.0832192  
C        C      0.874790000000     0.578870000000     0.988300000000     0.0832192  
C        C      0.027080000000     0.737130000000     0.993510000000     0.0832192  
C        C      0.875030000000     0.579850000000     0.909440000000     0.0832192  
C        C      0.955300000000     0.657910000000     0.826490000000     0.0832192  
C        C      0.949870000000     0.657300000000     0.069710000000     0.0832192  
C        C      0.784550000000     0.495660000000     0.986190000000     0.0832192  
C        C      0.096430000000     0.819490000000     0.159700000000     0.0832192  
C        C      0.288960000000     0.335920000000     0.264360000000     0.0832192  
C        C      0.293230000000     0.253310000000     0.340880000000     0.0832192  
C        C      0.295920000000     0.409430000000     0.421130000000     0.0832192  
C        C      0.289950000000     0.256380000000     0.262870000000     0.0832192  
C        C      0.295180000000     0.329590000000     0.420150000000     0.0832192  
C        C      0.297390000000     0.168580000000     0.342090000000     0.0832192  
C        C      0.292570000000     0.412410000000     0.342700000000     0.0832192  
C        C      0.288890000000     0.490530000000     0.504340000000     0.0832192  
C        C      0.276940000000     0.340210000000     0.180510000000     0.0832192  
O        O      0.164900000000     0.657830000000     0.662770000000    -0.294645   
O        O      0.499530000000     0.829720000000     0.731870000000    -0.294645   
O        O      0.417060000000     0.756370000000     0.583910000000    -0.294645   
O        O      0.666380000000     0.159710000000     0.889830000000    -0.294645   
O        O      0.585550000000     0.228880000000     0.816670000000    -0.294645   
O        O      0.024270000000     0.413070000000     0.657240000000    -0.294645   
O        O      0.298980000000     0.056590000000     0.492850000000    -0.294645   
O        O      0.192040000000     0.908820000000     0.430800000000    -0.294645   
O        O      0.502130000000     0.337230000000     0.995060000000    -0.294645   
O        O      0.767660000000     0.268130000000     0.097850000000    -0.294645   
O        O      0.833150000000     0.416090000000     0.172460000000    -0.294645   
O        O      0.776550000000     0.110170000000     0.269880000000    -0.294645   
O        O      0.768880000000     0.183330000000     0.412210000000    -0.294645   
O        O      0.367030000000     0.342760000000     0.755830000000    -0.294645   
O        O      0.806130000000     0.507150000000     0.563740000000    -0.294645   
O        O      0.761240000000     0.569200000000     0.478020000000    -0.294645   
O        O      0.507070000000     0.004940000000     0.342170000000    -0.294645   
O        O      0.669810000000     0.902150000000     0.170280000000    -0.294645   
O        O      0.660690000000     0.827540000000     0.243630000000    -0.294645   
O        O      0.506670000000     0.730120000000     0.840290000000    -0.294645   
O        O      0.356670000000     0.587790000000     0.771120000000    -0.294645   
O        O      0.611200000000     0.244170000000     0.586930000000    -0.294645   
O        O      0.242390000000     0.436260000000     0.943410000000    -0.294645   
O        O      0.283220000000     0.521980000000     0.091180000000    -0.294645   
O        O      0.007070000000     0.342170000000     0.004940000000    -0.294645   
O        O      0.169810000000     0.170280000000     0.902150000000    -0.294645   
O        O      0.160690000000     0.243630000000     0.827540000000    -0.294645   
O        O      0.006670000000     0.840290000000     0.730120000000    -0.294645   
O        O      0.856670000000     0.771120000000     0.587790000000    -0.294645   
O        O      0.111200000000     0.586930000000     0.244170000000    -0.294645   
O        O      0.742390000000     0.943410000000     0.436260000000    -0.294645   
O        O      0.783220000000     0.091180000000     0.521980000000    -0.294645   
O        O      0.664900000000     0.662770000000     0.657830000000    -0.294645   
O        O      0.999530000000     0.731870000000     0.829720000000    -0.294645   
O        O      0.917060000000     0.583910000000     0.756370000000    -0.294645   
O        O      0.166380000000     0.889830000000     0.159710000000    -0.294645   
O        O      0.085550000000     0.816670000000     0.228880000000    -0.294645   
O        O      0.524270000000     0.657240000000     0.413070000000    -0.294645   
O        O      0.798980000000     0.492850000000     0.056590000000    -0.294645   
O        O      0.692040000000     0.430800000000     0.908820000000    -0.294645   
O        O      0.002130000000     0.995060000000     0.337230000000    -0.294645   
O        O      0.267660000000     0.097850000000     0.268130000000    -0.294645   
O        O      0.333150000000     0.172460000000     0.416090000000    -0.294645   
O        O      0.276550000000     0.269880000000     0.110170000000    -0.294645   
O        O      0.268880000000     0.412210000000     0.183330000000    -0.294645   
O        O      0.867030000000     0.755830000000     0.342760000000    -0.294645   
O        O      0.306130000000     0.563740000000     0.507150000000    -0.294645   
O        O      0.261240000000     0.478020000000     0.569200000000    -0.294645   


