data_CANRUG_original

_audit_creation_method RASPA-1.0
_audit_creation_date 2022-1-30
_audit_author_name 'Felipe Lopes de Oliveira <felipe.lopes.oliveira@ibm.com>'

_cell_length_a    13.6691
_cell_length_b    14.569
_cell_length_c    23.6874
_cell_angle_alpha 90
_cell_angle_beta  90
_cell_angle_gamma 114.939
_cell_volume      4277.38

_symmetry_cell_setting          triclinic
_symmetry_space_group_name_Hall 'P 1'
_symmetry_space_group_name_H-M  'P 1'
_symmetry_Int_Tables_number     1

_symmetry_equiv_pos_as_xyz 'x,y,z'

loop_
_atom_site_label
_atom_site_type_symbol
_atom_site_fract_x
_atom_site_fract_y
_atom_site_fract_z
_atom_site_charge
Ca       Ca     0.015770000000     0.001320000000     0.656860000000     1.37198    
Ca       Ca     0.984230000000     0.498680000000     0.156860000000     1.37198    
Ca       Ca     0.984230000000     0.998680000000     0.343140000000     1.37198    
Ca       Ca     0.015770000000     0.501320000000     0.843140000000     1.37198    
Ca       Ca     0.000000000000     0.000000000000     0.500000000000     1.37198    
Ca       Ca     0.000000000000     0.500000000000     0.000000000000     1.37198    
Si       Si     0.706840000000     0.379590000000     0.509110000000     0.757234   
Si       Si     0.293160000000     0.120410000000     0.009110000000     0.757234   
Si       Si     0.293160000000     0.620410000000     0.490890000000     0.757234   
Si       Si     0.706840000000     0.879590000000     0.990890000000     0.757234   
H        H      0.874000000000     0.417400000000     0.599700000000     0.0379386  
H        H      0.967600000000     0.327600000000     0.634600000000     0.0379386  
H        H      0.819100000000     0.106300000000     0.519700000000     0.0379386  
H        H      0.726100000000     0.196000000000     0.485100000000     0.0379386  
H        H      0.589100000000     0.207500000000     0.583600000000     0.0379386  
H        H      0.409900000000     0.114000000000     0.610300000000     0.0379386  
H        H      0.319300000000     0.287100000000     0.507700000000     0.0379386  
H        H      0.499400000000     0.388500000000     0.487600000000     0.0379386  
H        H      0.887900000000     0.571300000000     0.480200000000     0.0379386  
H        H      0.959800000000     0.736700000000     0.513100000000     0.0379386  
H        H      0.718200000000     0.660400000000     0.626900000000     0.0379386  
H        H      0.645900000000     0.494300000000     0.593400000000     0.0379386  
H        H      0.564200000000     0.319900000000     0.405800000000     0.0379386  
H        H      0.595300000000     0.326900000000     0.308400000000     0.0379386  
H        H      0.916700000000     0.437000000000     0.337200000000     0.0379386  
H        H      0.885300000000     0.426100000000     0.433900000000     0.0379386  
H        H      0.729000000000     0.377000000000     0.182400000000     0.0379386  
H        H      0.126000000000     0.082600000000     0.099700000000     0.0379386  
H        H      0.032400000000     0.172400000000     0.134600000000     0.0379386  
H        H      0.180900000000     0.393700000000     0.019700000000     0.0379386  
H        H      0.273900000000     0.304000000000     0.985100000000     0.0379386  
H        H      0.410900000000     0.292500000000     0.083600000000     0.0379386  
H        H      0.590100000000     0.386000000000     0.110300000000     0.0379386  
H        H      0.680700000000     0.212900000000     0.007700000000     0.0379386  
H        H      0.500600000000     0.111500000000     0.987600000000     0.0379386  
H        H      0.112100000000     0.928700000000     0.980200000000     0.0379386  
H        H      0.040200000000     0.763300000000     0.013100000000     0.0379386  
H        H      0.281800000000     0.839600000000     0.126900000000     0.0379386  
H        H      0.354100000000     0.005700000000     0.093400000000     0.0379386  
H        H      0.435800000000     0.180100000000     0.905800000000     0.0379386  
H        H      0.404700000000     0.173100000000     0.808400000000     0.0379386  
H        H      0.083300000000     0.063000000000     0.837200000000     0.0379386  
H        H      0.114700000000     0.073900000000     0.933900000000     0.0379386  
H        H      0.271000000000     0.123000000000     0.682400000000     0.0379386  
H        H      0.126000000000     0.582600000000     0.400300000000     0.0379386  
H        H      0.032400000000     0.672400000000     0.365400000000     0.0379386  
H        H      0.180900000000     0.893700000000     0.480300000000     0.0379386  
H        H      0.273900000000     0.804000000000     0.514900000000     0.0379386  
H        H      0.410900000000     0.792500000000     0.416400000000     0.0379386  
H        H      0.590100000000     0.886000000000     0.389700000000     0.0379386  
H        H      0.680700000000     0.712900000000     0.492300000000     0.0379386  
H        H      0.500600000000     0.611500000000     0.512400000000     0.0379386  
H        H      0.112100000000     0.428700000000     0.519800000000     0.0379386  
H        H      0.040200000000     0.263300000000     0.486900000000     0.0379386  
H        H      0.281800000000     0.339600000000     0.373100000000     0.0379386  
H        H      0.354100000000     0.505700000000     0.406600000000     0.0379386  
H        H      0.435800000000     0.680100000000     0.594200000000     0.0379386  
H        H      0.404700000000     0.673100000000     0.691600000000     0.0379386  
H        H      0.083300000000     0.563000000000     0.662800000000     0.0379386  
H        H      0.114700000000     0.573900000000     0.566100000000     0.0379386  
H        H      0.271000000000     0.623000000000     0.817600000000     0.0379386  
H        H      0.874000000000     0.917400000000     0.900300000000     0.0379386  
H        H      0.967600000000     0.827600000000     0.865400000000     0.0379386  
H        H      0.819100000000     0.606300000000     0.980300000000     0.0379386  
H        H      0.726100000000     0.696000000000     0.014900000000     0.0379386  
H        H      0.589100000000     0.707500000000     0.916400000000     0.0379386  
H        H      0.409900000000     0.614000000000     0.889700000000     0.0379386  
H        H      0.319300000000     0.787100000000     0.992300000000     0.0379386  
H        H      0.499400000000     0.888500000000     0.012400000000     0.0379386  
H        H      0.887900000000     0.071300000000     0.019800000000     0.0379386  
H        H      0.959800000000     0.236700000000     0.986900000000     0.0379386  
H        H      0.718200000000     0.160400000000     0.873100000000     0.0379386  
H        H      0.645900000000     0.994300000000     0.906600000000     0.0379386  
H        H      0.564200000000     0.819900000000     0.094200000000     0.0379386  
H        H      0.595300000000     0.826900000000     0.191600000000     0.0379386  
H        H      0.916700000000     0.937000000000     0.162800000000     0.0379386  
H        H      0.885300000000     0.926100000000     0.066100000000     0.0379386  
H        H      0.729000000000     0.877000000000     0.317600000000     0.0379386  
C        C      0.789380000000     0.316320000000     0.538900000000     0.00516568 
C        C      0.862200000000     0.354050000000     0.583380000000     0.00516568 
C        C      0.918000000000     0.300550000000     0.604330000000     0.00516568 
C        C      0.901250000000     0.207630000000     0.581090000000     0.00516568 
C        C      0.830000000000     0.169300000000     0.536260000000     0.00516568 
C        C      0.774880000000     0.222990000000     0.515690000000     0.00516568 
C        C      0.958480000000     0.146990000000     0.603360000000     0.00516568 
C        C      0.563740000000     0.307350000000     0.531640000000     0.00516568 
C        C      0.534580000000     0.224710000000     0.568640000000     0.00516568 
C        C      0.427510000000     0.167560000000     0.583800000000     0.00516568 
C        C      0.346620000000     0.188800000000     0.560210000000     0.00516568 
C        C      0.374200000000     0.271470000000     0.523760000000     0.00516568 
C        C      0.481480000000     0.330650000000     0.511010000000     0.00516568 
C        C      0.230490000000     0.121820000000     0.570810000000     0.00516568 
C        C      0.759820000000     0.514160000000     0.533580000000     0.00516568 
C        C      0.852990000000     0.588660000000     0.510260000000     0.00516568 
C        C      0.896030000000     0.687520000000     0.529810000000     0.00516568 
C        C      0.846770000000     0.714920000000     0.573400000000     0.00516568 
C        C      0.753110000000     0.642380000000     0.597060000000     0.00516568 
C        C      0.710260000000     0.543140000000     0.577070000000     0.00516568 
C        C      0.895500000000     0.821530000000     0.595160000000     0.00516568 
C        C      0.721300000000     0.375560000000     0.430410000000     0.00516568 
C        C      0.636110000000     0.344300000000     0.392110000000     0.00516568 
C        C      0.654310000000     0.348150000000     0.333990000000     0.00516568 
C        C      0.758990000000     0.383170000000     0.313740000000     0.00516568 
C        C      0.845010000000     0.412950000000     0.351120000000     0.00516568 
C        C      0.826170000000     0.407640000000     0.408580000000     0.00516568 
C        C      0.785190000000     0.391900000000     0.252470000000     0.00516568 
C        C      0.210620000000     0.183680000000     0.038900000000     0.00516568 
C        C      0.137800000000     0.145950000000     0.083380000000     0.00516568 
C        C      0.082000000000     0.199450000000     0.104330000000     0.00516568 
C        C      0.098750000000     0.292370000000     0.081090000000     0.00516568 
C        C      0.170000000000     0.330700000000     0.036260000000     0.00516568 
C        C      0.225120000000     0.277010000000     0.015690000000     0.00516568 
C        C      0.041520000000     0.353010000000     0.103360000000     0.00516568 
C        C      0.436260000000     0.192650000000     0.031640000000     0.00516568 
C        C      0.465420000000     0.275290000000     0.068640000000     0.00516568 
C        C      0.572490000000     0.332440000000     0.083800000000     0.00516568 
C        C      0.653380000000     0.311200000000     0.060210000000     0.00516568 
C        C      0.625800000000     0.228530000000     0.023760000000     0.00516568 
C        C      0.518520000000     0.169350000000     0.011010000000     0.00516568 
C        C      0.769510000000     0.378180000000     0.070810000000     0.00516568 
C        C      0.240180000000     0.985840000000     0.033580000000     0.00516568 
C        C      0.147010000000     0.911340000000     0.010260000000     0.00516568 
C        C      0.103970000000     0.812480000000     0.029810000000     0.00516568 
C        C      0.153230000000     0.785080000000     0.073400000000     0.00516568 
C        C      0.246890000000     0.857620000000     0.097060000000     0.00516568 
C        C      0.289740000000     0.956860000000     0.077070000000     0.00516568 
C        C      0.104500000000     0.678470000000     0.095160000000     0.00516568 
C        C      0.278700000000     0.124440000000     0.930410000000     0.00516568 
C        C      0.363890000000     0.155700000000     0.892110000000     0.00516568 
C        C      0.345690000000     0.151850000000     0.833990000000     0.00516568 
C        C      0.241010000000     0.116830000000     0.813740000000     0.00516568 
C        C      0.154990000000     0.087050000000     0.851120000000     0.00516568 
C        C      0.173830000000     0.092360000000     0.908580000000     0.00516568 
C        C      0.214810000000     0.108100000000     0.752470000000     0.00516568 
C        C      0.210620000000     0.683680000000     0.461100000000     0.00516568 
C        C      0.137800000000     0.645950000000     0.416620000000     0.00516568 
C        C      0.082000000000     0.699450000000     0.395670000000     0.00516568 
C        C      0.098750000000     0.792370000000     0.418910000000     0.00516568 
C        C      0.170000000000     0.830700000000     0.463740000000     0.00516568 
C        C      0.225120000000     0.777010000000     0.484310000000     0.00516568 
C        C      0.041520000000     0.853010000000     0.396640000000     0.00516568 
C        C      0.436260000000     0.692650000000     0.468360000000     0.00516568 
C        C      0.465420000000     0.775290000000     0.431360000000     0.00516568 
C        C      0.572490000000     0.832440000000     0.416200000000     0.00516568 
C        C      0.653380000000     0.811200000000     0.439790000000     0.00516568 
C        C      0.625800000000     0.728530000000     0.476240000000     0.00516568 
C        C      0.518520000000     0.669350000000     0.488990000000     0.00516568 
C        C      0.769510000000     0.878180000000     0.429190000000     0.00516568 
C        C      0.240180000000     0.485840000000     0.466420000000     0.00516568 
C        C      0.147010000000     0.411340000000     0.489740000000     0.00516568 
C        C      0.103970000000     0.312480000000     0.470190000000     0.00516568 
C        C      0.153230000000     0.285080000000     0.426600000000     0.00516568 
C        C      0.246890000000     0.357620000000     0.402940000000     0.00516568 
C        C      0.289740000000     0.456860000000     0.422930000000     0.00516568 
C        C      0.104500000000     0.178470000000     0.404840000000     0.00516568 
C        C      0.278700000000     0.624440000000     0.569590000000     0.00516568 
C        C      0.363890000000     0.655700000000     0.607890000000     0.00516568 
C        C      0.345690000000     0.651850000000     0.666010000000     0.00516568 
C        C      0.241010000000     0.616830000000     0.686260000000     0.00516568 
C        C      0.154990000000     0.587050000000     0.648880000000     0.00516568 
C        C      0.173830000000     0.592360000000     0.591420000000     0.00516568 
C        C      0.214810000000     0.608100000000     0.747530000000     0.00516568 
C        C      0.789380000000     0.816320000000     0.961100000000     0.00516568 
C        C      0.862200000000     0.854050000000     0.916620000000     0.00516568 
C        C      0.918000000000     0.800550000000     0.895670000000     0.00516568 
C        C      0.901250000000     0.707630000000     0.918910000000     0.00516568 
C        C      0.830000000000     0.669300000000     0.963740000000     0.00516568 
C        C      0.774880000000     0.722990000000     0.984310000000     0.00516568 
C        C      0.958480000000     0.646990000000     0.896640000000     0.00516568 
C        C      0.563740000000     0.807350000000     0.968360000000     0.00516568 
C        C      0.534580000000     0.724710000000     0.931360000000     0.00516568 
C        C      0.427510000000     0.667560000000     0.916200000000     0.00516568 
C        C      0.346620000000     0.688800000000     0.939790000000     0.00516568 
C        C      0.374200000000     0.771470000000     0.976240000000     0.00516568 
C        C      0.481480000000     0.830650000000     0.988990000000     0.00516568 
C        C      0.230490000000     0.621820000000     0.929190000000     0.00516568 
C        C      0.759820000000     0.014160000000     0.966420000000     0.00516568 
C        C      0.852990000000     0.088660000000     0.989740000000     0.00516568 
C        C      0.896030000000     0.187520000000     0.970190000000     0.00516568 
C        C      0.846770000000     0.214920000000     0.926600000000     0.00516568 
C        C      0.753110000000     0.142380000000     0.902940000000     0.00516568 
C        C      0.710260000000     0.043140000000     0.922930000000     0.00516568 
C        C      0.895500000000     0.321530000000     0.904840000000     0.00516568 
C        C      0.721300000000     0.875560000000     0.069590000000     0.00516568 
C        C      0.636110000000     0.844300000000     0.107890000000     0.00516568 
C        C      0.654310000000     0.848150000000     0.166010000000     0.00516568 
C        C      0.758990000000     0.883170000000     0.186260000000     0.00516568 
C        C      0.845010000000     0.912950000000     0.148880000000     0.00516568 
C        C      0.826170000000     0.907640000000     0.091420000000     0.00516568 
C        C      0.785190000000     0.891900000000     0.247530000000     0.00516568 
O        O      0.013160000000     0.172900000000     0.647440000000    -0.4506     
O        O      0.946790000000     0.067450000000     0.576690000000    -0.4506     
O        O      0.169000000000     0.101990000000     0.529150000000    -0.4506     
O        O      0.199850000000     0.087890000000     0.620170000000    -0.4506     
O        O      0.851830000000     0.844960000000     0.635860000000    -0.4506     
O        O      0.982130000000     0.884590000000     0.572280000000    -0.4506     
O        O      0.877410000000     0.417430000000     0.236170000000    -0.4506     
O        O      0.703350000000     0.371410000000     0.217920000000    -0.4506     
O        O      0.986840000000     0.327100000000     0.147440000000    -0.4506     
O        O      0.053210000000     0.432550000000     0.076690000000    -0.4506     
O        O      0.831000000000     0.398010000000     0.029150000000    -0.4506     
O        O      0.800150000000     0.412110000000     0.120170000000    -0.4506     
O        O      0.148170000000     0.655040000000     0.135860000000    -0.4506     
O        O      0.017870000000     0.615410000000     0.072280000000    -0.4506     
O        O      0.122590000000     0.082570000000     0.736170000000    -0.4506     
O        O      0.296650000000     0.128590000000     0.717920000000    -0.4506     
O        O      0.986840000000     0.827100000000     0.352560000000    -0.4506     
O        O      0.053210000000     0.932550000000     0.423310000000    -0.4506     
O        O      0.831000000000     0.898010000000     0.470850000000    -0.4506     
O        O      0.800150000000     0.912110000000     0.379830000000    -0.4506     
O        O      0.148170000000     0.155040000000     0.364140000000    -0.4506     
O        O      0.017870000000     0.115410000000     0.427720000000    -0.4506     
O        O      0.122590000000     0.582570000000     0.763830000000    -0.4506     
O        O      0.296650000000     0.628590000000     0.782080000000    -0.4506     
O        O      0.013160000000     0.672900000000     0.852560000000    -0.4506     
O        O      0.946790000000     0.567450000000     0.923310000000    -0.4506     
O        O      0.169000000000     0.601990000000     0.970850000000    -0.4506     
O        O      0.199850000000     0.587890000000     0.879830000000    -0.4506     
O        O      0.851830000000     0.344960000000     0.864140000000    -0.4506     
O        O      0.982130000000     0.384590000000     0.927720000000    -0.4506     
O        O      0.877410000000     0.917430000000     0.263830000000    -0.4506     
O        O      0.703350000000     0.871410000000     0.282080000000    -0.4506     


