data_CATART03_original

_audit_creation_method RASPA-1.0
_audit_creation_date 2022-1-31
_audit_author_name 'Felipe Lopes de Oliveira <felipe.lopes.oliveira@ibm.com>'

_cell_length_a    9.2197
_cell_length_b    9.6228
_cell_length_c    10.5649
_cell_angle_alpha 90
_cell_angle_beta  90
_cell_angle_gamma 90
_cell_volume      937.311

_symmetry_cell_setting          triclinic
_symmetry_space_group_name_Hall 'P 1'
_symmetry_space_group_name_H-M  'P 1'
_symmetry_Int_Tables_number     1

_symmetry_equiv_pos_as_xyz 'x,y,z'

loop_
_atom_site_label
_atom_site_type_symbol
_atom_site_fract_x
_atom_site_fract_y
_atom_site_fract_z
_atom_site_charge
Ca       Ca     0.813930000000     0.681120000000     0.322890000000     1.36223    
Ca       Ca     0.313930000000     0.818880000000     0.677110000000     1.36223    
Ca       Ca     0.686070000000     0.318880000000     0.822890000000     1.36223    
Ca       Ca     0.186070000000     0.181120000000     0.177110000000     1.36223    
H        H      0.689120000000     0.262550000000     0.342760000000     0.0821369  
H        H      0.750940000000     0.173780000000     0.142850000000     0.0821369  
H        H      0.571310000000     0.454640000000     0.339830000000     0.0821369  
H        H      0.876310000000     0.313030000000     0.034430000000     0.0821369  
H        H      0.189120000000     0.237450000000     0.657240000000     0.0821369  
H        H      0.250940000000     0.326220000000     0.857150000000     0.0821369  
H        H      0.071310000000     0.045360000000     0.660170000000     0.0821369  
H        H      0.376310000000     0.186970000000     0.965570000000     0.0821369  
H        H      0.810880000000     0.737450000000     0.842760000000     0.0821369  
H        H      0.749060000000     0.826220000000     0.642850000000     0.0821369  
H        H      0.928690000000     0.545360000000     0.839830000000     0.0821369  
H        H      0.623690000000     0.686970000000     0.534430000000     0.0821369  
H        H      0.310880000000     0.762550000000     0.157240000000     0.0821369  
H        H      0.249060000000     0.673780000000     0.357150000000     0.0821369  
H        H      0.428690000000     0.954640000000     0.160170000000     0.0821369  
H        H      0.123690000000     0.813030000000     0.465570000000     0.0821369  
C        C      0.890000000000     0.356900000000     0.295900000000     0.169114   
C        C      0.726300000000     0.339000000000     0.275600000000     0.169114   
C        C      0.702200000000     0.273600000000     0.142200000000     0.169114   
C        C      0.541400000000     0.260700000000     0.106200000000     0.169114   
C        C      0.390000000000     0.143100000000     0.704100000000     0.169114   
C        C      0.226300000000     0.161000000000     0.724400000000     0.169114   
C        C      0.202200000000     0.226400000000     0.857800000000     0.169114   
C        C      0.041400000000     0.239300000000     0.893800000000     0.169114   
C        C      0.610000000000     0.643100000000     0.795900000000     0.169114   
C        C      0.773700000000     0.661000000000     0.775600000000     0.169114   
C        C      0.797800000000     0.726400000000     0.642200000000     0.169114   
C        C      0.958600000000     0.739300000000     0.606200000000     0.169114   
C        C      0.110000000000     0.856900000000     0.204100000000     0.169114   
C        C      0.273700000000     0.839000000000     0.224400000000     0.169114   
C        C      0.297800000000     0.773600000000     0.357800000000     0.169114   
C        C      0.458600000000     0.760700000000     0.393800000000     0.169114   
O        O      0.942010000000     0.470050000000     0.325570000000    -0.39454    
O        O      0.961540000000     0.245800000000     0.283710000000    -0.39454    
O        O      0.660520000000     0.474170000000     0.281520000000    -0.39454    
O        O      0.773030000000     0.354730000000     0.047980000000    -0.39454    
O        O      0.451730000000     0.235190000000     0.189360000000    -0.39454    
O        O      0.515410000000     0.267350000000     0.986670000000    -0.39454    
O        O      0.442010000000     0.029950000000     0.674430000000    -0.39454    
O        O      0.461540000000     0.254200000000     0.716290000000    -0.39454    
O        O      0.160520000000     0.025830000000     0.718480000000    -0.39454    
O        O      0.273030000000     0.145270000000     0.952020000000    -0.39454    
O        O      0.951730000000     0.264810000000     0.810640000000    -0.39454    
O        O      0.015410000000     0.232650000000     0.013330000000    -0.39454    
O        O      0.557990000000     0.529950000000     0.825570000000    -0.39454    
O        O      0.538460000000     0.754200000000     0.783710000000    -0.39454    
O        O      0.839480000000     0.525830000000     0.781520000000    -0.39454    
O        O      0.726970000000     0.645270000000     0.547980000000    -0.39454    
O        O      0.048270000000     0.764810000000     0.689360000000    -0.39454    
O        O      0.984590000000     0.732650000000     0.486670000000    -0.39454    
O        O      0.057990000000     0.970050000000     0.174430000000    -0.39454    
O        O      0.038460000000     0.745800000000     0.216290000000    -0.39454    
O        O      0.339480000000     0.974170000000     0.218480000000    -0.39454    
O        O      0.226970000000     0.854730000000     0.452020000000    -0.39454    
O        O      0.548270000000     0.735190000000     0.310640000000    -0.39454    
O        O      0.484590000000     0.767350000000     0.513330000000    -0.39454    


