data_CAXVOO_original

_audit_creation_method RASPA-1.0
_audit_creation_date 2022-1-30
_audit_author_name 'Felipe Lopes de Oliveira <felipe.lopes.oliveira@ibm.com>'

_cell_length_a    6.9107
_cell_length_b    15.2451
_cell_length_c    15.2451
_cell_angle_alpha 117.759
_cell_angle_beta  98.6908
_cell_angle_gamma 98.6908
_cell_volume      1359.2

_symmetry_cell_setting          triclinic
_symmetry_space_group_name_Hall 'P 1'
_symmetry_space_group_name_H-M  'P 1'
_symmetry_Int_Tables_number     1

_symmetry_equiv_pos_as_xyz 'x,y,z'

loop_
_atom_site_label
_atom_site_type_symbol
_atom_site_fract_x
_atom_site_fract_y
_atom_site_fract_z
_atom_site_charge
Fe       Fe     0.889200000000     0.679200000000     0.412300000000     0.786514   
Fe       Fe     0.476900000000     0.587700000000     0.266900000000     0.786514   
Fe       Fe     0.210000000000     0.733100000000     0.320800000000     0.786514   
Fe       Fe     0.110800000000     0.320800000000     0.587700000000     0.786514   
Fe       Fe     0.523100000000     0.412300000000     0.733100000000     0.786514   
Fe       Fe     0.790000000000     0.266900000000     0.679200000000     0.786514   
H        H      0.648200000000     0.030700000000     0.461900000000     0.0578954  
H        H      0.186300000000     0.538100000000     0.568800000000     0.0578954  
H        H      0.617500000000     0.431200000000     0.969300000000     0.0578954  
H        H      0.351800000000     0.969300000000     0.538100000000     0.0578954  
H        H      0.813700000000     0.461900000000     0.431200000000     0.0578954  
H        H      0.382500000000     0.568800000000     0.030700000000     0.0578954  
C        C      0.623600000000     0.825100000000     0.380700000000     0.139764   
C        C      0.841300000000     0.912100000000     0.448800000000     0.139764   
C        C      0.035500000000     0.900900000000     0.463600000000     0.139764   
C        C      0.798900000000     0.005900000000     0.473800000000     0.139764   
C        C      0.242900000000     0.619300000000     0.444400000000     0.139764   
C        C      0.392500000000     0.551200000000     0.463300000000     0.139764   
C        C      0.571900000000     0.536400000000     0.437300000000     0.139764   
C        C      0.325100000000     0.526200000000     0.532100000000     0.139764   
C        C      0.798500000000     0.555600000000     0.174900000000     0.139764   
C        C      0.929200000000     0.536700000000     0.087900000000     0.139764   
C        C      0.134600000000     0.562700000000     0.099100000000     0.139764   
C        C      0.793000000000     0.467900000000     0.994100000000     0.139764   
C        C      0.376400000000     0.174900000000     0.619300000000     0.139764   
C        C      0.158700000000     0.087900000000     0.551200000000     0.139764   
C        C      0.964500000000     0.099100000000     0.536400000000     0.139764   
C        C      0.201100000000     0.994100000000     0.526200000000     0.139764   
C        C      0.757100000000     0.380700000000     0.555600000000     0.139764   
C        C      0.607500000000     0.448800000000     0.536700000000     0.139764   
C        C      0.428100000000     0.463600000000     0.562700000000     0.139764   
C        C      0.674900000000     0.473800000000     0.467900000000     0.139764   
C        C      0.201500000000     0.444400000000     0.825100000000     0.139764   
C        C      0.070800000000     0.463300000000     0.912100000000     0.139764   
C        C      0.865400000000     0.437300000000     0.900900000000     0.139764   
C        C      0.207000000000     0.532100000000     0.005900000000     0.139764   
O        O      0.680000000000     0.747700000000     0.351300000000    -0.467821   
O        O      0.471600000000     0.838900000000     0.369900000000    -0.467821   
O        O      0.072200000000     0.812500000000     0.437100000000    -0.467821   
O        O      0.328700000000     0.648700000000     0.396400000000    -0.467821   
O        O      0.101700000000     0.630100000000     0.469000000000    -0.467821   
O        O      0.635100000000     0.562900000000     0.375400000000    -0.467821   
O        O      0.932300000000     0.603600000000     0.252300000000    -0.467821   
O        O      0.632700000000     0.531000000000     0.161100000000    -0.467821   
O        O      0.259700000000     0.624600000000     0.187500000000    -0.467821   
O        O      0.320000000000     0.252300000000     0.648700000000    -0.467821   
O        O      0.528400000000     0.161100000000     0.630100000000    -0.467821   
O        O      0.927800000000     0.187500000000     0.562900000000    -0.467821   
O        O      0.671300000000     0.351300000000     0.603600000000    -0.467821   
O        O      0.898300000000     0.369900000000     0.531000000000    -0.467821   
O        O      0.364900000000     0.437100000000     0.624600000000    -0.467821   
O        O      0.067700000000     0.396400000000     0.747700000000    -0.467821   
O        O      0.367300000000     0.469000000000     0.838900000000    -0.467821   
O        O      0.740300000000     0.375400000000     0.812500000000    -0.467821   


