data_CAXWIJ_original

_audit_creation_method RASPA-1.0
_audit_creation_date 2022-1-30
_audit_author_name 'Felipe Lopes de Oliveira <felipe.lopes.oliveira@ibm.com>'

_cell_length_a    6.8538
_cell_length_b    15.1576
_cell_length_c    15.1576
_cell_angle_alpha 117.77
_cell_angle_beta  98.6689
_cell_angle_gamma 98.6687
_cell_volume      1332.73

_symmetry_cell_setting          triclinic
_symmetry_space_group_name_Hall 'P 1'
_symmetry_space_group_name_H-M  'P 1'
_symmetry_Int_Tables_number     1

_symmetry_equiv_pos_as_xyz 'x,y,z'

loop_
_atom_site_label
_atom_site_type_symbol
_atom_site_fract_x
_atom_site_fract_y
_atom_site_fract_z
_atom_site_charge
Fe       Fe     0.476100000000     0.588000000000     0.272000000000     0.825451   
Fe       Fe     0.204100000000     0.728000000000     0.316000000000     0.825451   
Fe       Fe     0.888100000000     0.684000000000     0.412000000000     0.825451   
Fe       Fe     0.523900000000     0.412000000000     0.728000000000     0.825451   
Fe       Fe     0.795900000000     0.272000000000     0.684000000000     0.825451   
Fe       Fe     0.111900000000     0.316000000000     0.588000000000     0.825451   
H        H      0.182800000000     0.541900000000     0.561700000000     0.0654859  
H        H      0.621100000000     0.438300000000     0.980200000000     0.0654859  
H        H      0.640900000000     0.019800000000     0.458100000000     0.0654859  
H        H      0.817200000000     0.458100000000     0.438300000000     0.0654859  
H        H      0.378900000000     0.561700000000     0.019800000000     0.0654859  
H        H      0.359100000000     0.980200000000     0.541900000000     0.0654859  
C        C      0.283800000000     0.611900000000     0.439800000000     0.0802046  
C        C      0.382400000000     0.545200000000     0.465700000000     0.0802046  
C        C      0.562500000000     0.534400000000     0.428500000000     0.0802046  
C        C      0.324800000000     0.522000000000     0.536300000000     0.0802046  
C        C      0.844000000000     0.560200000000     0.172100000000     0.0802046  
C        C      0.916700000000     0.534300000000     0.079500000000     0.0802046  
C        C      0.134000000000     0.571500000000     0.105900000000     0.0802046  
C        C      0.788500000000     0.463700000000     0.985700000000     0.0802046  
C        C      0.671900000000     0.827900000000     0.388100000000     0.0802046  
C        C      0.837200000000     0.920500000000     0.454800000000     0.0802046  
C        C      0.028100000000     0.894100000000     0.465600000000     0.0802046  
C        C      0.802800000000     0.014300000000     0.478000000000     0.0802046  
C        C      0.716200000000     0.388100000000     0.560200000000     0.0802046  
C        C      0.617600000000     0.454800000000     0.534300000000     0.0802046  
C        C      0.437500000000     0.465600000000     0.571500000000     0.0802046  
C        C      0.675200000000     0.478000000000     0.463700000000     0.0802046  
C        C      0.156000000000     0.439800000000     0.827900000000     0.0802046  
C        C      0.083300000000     0.465700000000     0.920500000000     0.0802046  
C        C      0.866000000000     0.428500000000     0.894100000000     0.0802046  
C        C      0.211500000000     0.536300000000     0.014300000000     0.0802046  
C        C      0.328100000000     0.172100000000     0.611900000000     0.0802046  
C        C      0.162800000000     0.079500000000     0.545200000000     0.0802046  
C        C      0.971900000000     0.105900000000     0.534400000000     0.0802046  
C        C      0.197200000000     0.985700000000     0.522000000000     0.0802046  
O        O      0.326500000000     0.645700000000     0.379300000000    -0.403919   
O        O      0.094900000000     0.619600000000     0.471100000000    -0.403919   
O        O      0.638600000000     0.569600000000     0.376800000000    -0.403919   
O        O      0.947200000000     0.620700000000     0.266400000000    -0.403919   
O        O      0.623800000000     0.528900000000     0.148500000000    -0.403919   
O        O      0.261800000000     0.623200000000     0.192800000000    -0.403919   
O        O      0.680800000000     0.733600000000     0.354300000000    -0.403919   
O        O      0.475300000000     0.851500000000     0.380400000000    -0.403919   
O        O      0.069000000000     0.807200000000     0.430400000000    -0.403919   
O        O      0.673500000000     0.354300000000     0.620700000000    -0.403919   
O        O      0.905100000000     0.380400000000     0.528900000000    -0.403919   
O        O      0.361400000000     0.430400000000     0.623200000000    -0.403919   
O        O      0.052800000000     0.379300000000     0.733600000000    -0.403919   
O        O      0.376200000000     0.471100000000     0.851500000000    -0.403919   
O        O      0.738200000000     0.376800000000     0.807200000000    -0.403919   
O        O      0.319200000000     0.266400000000     0.645700000000    -0.403919   
O        O      0.524700000000     0.148500000000     0.619600000000    -0.403919   
O        O      0.931000000000     0.192800000000     0.569600000000    -0.403919   


