data_CEGWER_original

_audit_creation_method RASPA-1.0
_audit_creation_date 2022-1-30
_audit_author_name 'Felipe Lopes de Oliveira <felipe.lopes.oliveira@ibm.com>'

_cell_length_a    7.2603
_cell_length_b    10.3523
_cell_length_c    18.692
_cell_angle_alpha 90
_cell_angle_beta  94.087
_cell_angle_gamma 90
_cell_volume      1401.33

_symmetry_cell_setting          triclinic
_symmetry_space_group_name_Hall 'P 1'
_symmetry_space_group_name_H-M  'P 1'
_symmetry_Int_Tables_number     1

_symmetry_equiv_pos_as_xyz 'x,y,z'

loop_
_atom_site_label
_atom_site_type_symbol
_atom_site_fract_x
_atom_site_fract_y
_atom_site_fract_z
_atom_site_charge
Ca       Ca     0.746950000000     0.257200000000     0.867080000000     1.33549    
Ca       Ca     0.753050000000     0.757200000000     0.632920000000     1.33549    
Ca       Ca     0.253050000000     0.742800000000     0.132920000000     1.33549    
Ca       Ca     0.246950000000     0.242800000000     0.367080000000     1.33549    
P        P      0.823660000000     0.434390000000     0.700060000000     0.451971   
P        P      0.676340000000     0.934390000000     0.799940000000     0.451971   
P        P      0.176340000000     0.565610000000     0.299940000000     0.451971   
P        P      0.323660000000     0.065610000000     0.200060000000     0.451971   
H        H      0.121300000000     0.417200000000     0.794800000000     0.145707   
H        H      0.238200000000     0.461800000000     0.732100000000     0.145707   
H        H      0.991700000000     0.301400000000     0.588300000000     0.145707   
H        H      0.184100000000     0.249400000000     0.618600000000     0.145707   
H        H      0.311400000000     0.453000000000     0.619600000000     0.145707   
H        H      0.117400000000     0.517800000000     0.604800000000     0.145707   
H        H      0.487400000000     0.153700000000     0.766000000000     0.145707   
H        H      0.716800000000     0.422300000000     0.576300000000     0.145707   
H        H      0.871500000000     0.053300000000     0.696700000000     0.145707   
H        H      0.378700000000     0.917200000000     0.705200000000     0.145707   
H        H      0.261800000000     0.961800000000     0.767900000000     0.145707   
H        H      0.508300000000     0.801400000000     0.911700000000     0.145707   
H        H      0.315900000000     0.749400000000     0.881400000000     0.145707   
H        H      0.188600000000     0.953000000000     0.880400000000     0.145707   
H        H      0.382600000000     0.017800000000     0.895200000000     0.145707   
H        H      0.012600000000     0.653700000000     0.734000000000     0.145707   
H        H      0.783200000000     0.922300000000     0.923700000000     0.145707   
H        H      0.628500000000     0.553300000000     0.803300000000     0.145707   
H        H      0.878700000000     0.582800000000     0.205200000000     0.145707   
H        H      0.761800000000     0.538200000000     0.267900000000     0.145707   
H        H      0.008300000000     0.698600000000     0.411700000000     0.145707   
H        H      0.815900000000     0.750600000000     0.381400000000     0.145707   
H        H      0.688600000000     0.547000000000     0.380400000000     0.145707   
H        H      0.882600000000     0.482200000000     0.395200000000     0.145707   
H        H      0.512600000000     0.846300000000     0.234000000000     0.145707   
H        H      0.283200000000     0.577700000000     0.423700000000     0.145707   
H        H      0.128500000000     0.946700000000     0.303300000000     0.145707   
H        H      0.621300000000     0.082800000000     0.294800000000     0.145707   
H        H      0.738200000000     0.038200000000     0.232100000000     0.145707   
H        H      0.491700000000     0.198600000000     0.088300000000     0.145707   
H        H      0.684100000000     0.250600000000     0.118600000000     0.145707   
H        H      0.811400000000     0.047000000000     0.119600000000     0.145707   
H        H      0.617400000000     0.982200000000     0.104800000000     0.145707   
H        H      0.987400000000     0.346300000000     0.266000000000     0.145707   
H        H      0.216800000000     0.077700000000     0.076300000000     0.145707   
H        H      0.371500000000     0.446700000000     0.196700000000     0.145707   
C        C      0.335000000000     0.296500000000     0.779400000000     0.0784     
C        C      0.182900000000     0.387100000000     0.753510000000     0.0784     
C        C      0.035000000000     0.330300000000     0.698280000000     0.0784     
C        C      0.098400000000     0.320900000000     0.620720000000     0.0784     
C        C      0.191400000000     0.443300000000     0.593910000000     0.0784     
C        C      0.216200000000     0.441400000000     0.514500000000     0.0784     
C        C      0.978500000000     0.200400000000     0.726600000000     0.0784     
C        C      0.165000000000     0.796500000000     0.720600000000     0.0784     
C        C      0.317100000000     0.887100000000     0.746490000000     0.0784     
C        C      0.465000000000     0.830300000000     0.801720000000     0.0784     
C        C      0.401600000000     0.820900000000     0.879280000000     0.0784     
C        C      0.308600000000     0.943300000000     0.906090000000     0.0784     
C        C      0.283800000000     0.941400000000     0.985500000000     0.0784     
C        C      0.521500000000     0.700400000000     0.773400000000     0.0784     
C        C      0.665000000000     0.703500000000     0.220600000000     0.0784     
C        C      0.817100000000     0.612900000000     0.246490000000     0.0784     
C        C      0.965000000000     0.669700000000     0.301720000000     0.0784     
C        C      0.901600000000     0.679100000000     0.379280000000     0.0784     
C        C      0.808600000000     0.556700000000     0.406090000000     0.0784     
C        C      0.783800000000     0.558600000000     0.485500000000     0.0784     
C        C      0.021500000000     0.799600000000     0.273400000000     0.0784     
C        C      0.835000000000     0.203500000000     0.279400000000     0.0784     
C        C      0.682900000000     0.112900000000     0.253510000000     0.0784     
C        C      0.535000000000     0.169700000000     0.198280000000     0.0784     
C        C      0.598400000000     0.179100000000     0.120720000000     0.0784     
C        C      0.691400000000     0.056700000000     0.093910000000     0.0784     
C        C      0.716200000000     0.058600000000     0.014500000000     0.0784     
C        C      0.478500000000     0.299600000000     0.226600000000     0.0784     
O        O      0.417900000000     0.309400000000     0.838700000000    -0.405291   
O        O      0.372300000000     0.204000000000     0.735280000000    -0.405291   
O        O      0.186200000000     0.349400000000     0.475650000000    -0.405291   
O        O      0.275800000000     0.552500000000     0.492320000000    -0.405291   
O        O      0.982200000000     0.176800000000     0.790760000000    -0.405291   
O        O      0.919000000000     0.117100000000     0.677540000000    -0.405291   
O        O      0.747100000000     0.411000000000     0.772560000000    -0.405291   
O        O      0.889300000000     0.572900000000     0.692190000000    -0.405291   
O        O      0.691400000000     0.395400000000     0.637280000000    -0.405291   
O        O      0.082100000000     0.809400000000     0.661300000000    -0.405291   
O        O      0.127700000000     0.704000000000     0.764720000000    -0.405291   
O        O      0.313800000000     0.849400000000     0.024350000000    -0.405291   
O        O      0.224200000000     0.052500000000     0.007680000000    -0.405291   
O        O      0.517800000000     0.676800000000     0.709240000000    -0.405291   
O        O      0.581000000000     0.617100000000     0.822460000000    -0.405291   
O        O      0.752900000000     0.911000000000     0.727440000000    -0.405291   
O        O      0.610700000000     0.072900000000     0.807810000000    -0.405291   
O        O      0.808600000000     0.895400000000     0.862720000000    -0.405291   
O        O      0.582100000000     0.690600000000     0.161300000000    -0.405291   
O        O      0.627700000000     0.796000000000     0.264720000000    -0.405291   
O        O      0.813800000000     0.650600000000     0.524350000000    -0.405291   
O        O      0.724200000000     0.447500000000     0.507680000000    -0.405291   
O        O      0.017800000000     0.823200000000     0.209240000000    -0.405291   
O        O      0.081000000000     0.882900000000     0.322460000000    -0.405291   
O        O      0.252900000000     0.589000000000     0.227440000000    -0.405291   
O        O      0.110700000000     0.427100000000     0.307810000000    -0.405291   
O        O      0.308600000000     0.604600000000     0.362720000000    -0.405291   
O        O      0.917900000000     0.190600000000     0.338700000000    -0.405291   
O        O      0.872300000000     0.296000000000     0.235280000000    -0.405291   
O        O      0.686200000000     0.150600000000     0.975650000000    -0.405291   
O        O      0.775800000000     0.947500000000     0.992320000000    -0.405291   
O        O      0.482200000000     0.323200000000     0.290760000000    -0.405291   
O        O      0.419000000000     0.382900000000     0.177540000000    -0.405291   
O        O      0.247100000000     0.089000000000     0.272560000000    -0.405291   
O        O      0.389300000000     0.927100000000     0.192190000000    -0.405291   
O        O      0.191400000000     0.104600000000     0.137280000000    -0.405291   


