data_CISMAT01_original

_audit_creation_method RASPA-1.0
_audit_creation_date 2022-1-30
_audit_author_name 'Felipe Lopes de Oliveira <felipe.lopes.oliveira@ibm.com>'

_cell_length_a    4.9693
_cell_length_b    10.744
_cell_length_c    12.0013
_cell_angle_alpha 90
_cell_angle_beta  90
_cell_angle_gamma 94.0583
_cell_volume      639.145

_symmetry_cell_setting          triclinic
_symmetry_space_group_name_Hall 'P 1'
_symmetry_space_group_name_H-M  'P 1'
_symmetry_Int_Tables_number     1

_symmetry_equiv_pos_as_xyz 'x,y,z'

loop_
_atom_site_label
_atom_site_type_symbol
_atom_site_fract_x
_atom_site_fract_y
_atom_site_fract_z
_atom_site_charge
Al       Al     0.000000000000     0.000000000000     0.500000000000     5.41239    
Al       Al     0.000000000000     0.000000000000     0.000000000000     5.41239    
Al       Al     0.752300000000     0.109800000000     0.750000000000     5.41239    
Al       Al     0.247700000000     0.890200000000     0.250000000000     5.41239    
P        P      0.479100000000     0.817700000000     0.486890000000     1.00759    
P        P      0.520900000000     0.182300000000     0.986890000000     1.00759    
P        P      0.520900000000     0.182300000000     0.513110000000     1.00759    
P        P      0.479100000000     0.817700000000     0.013110000000     1.00759    
C        C      0.552300000000     0.562300000000     0.476500000000    -0.108352   
C        C      0.394300000000     0.658300000000     0.533100000000    -0.108352   
C        C      0.447700000000     0.437700000000     0.976500000000    -0.108352   
C        C      0.605700000000     0.341700000000     0.033100000000    -0.108352   
C        C      0.447700000000     0.437700000000     0.523500000000    -0.108352   
C        C      0.605700000000     0.341700000000     0.466900000000    -0.108352   
C        C      0.552300000000     0.562300000000     0.023500000000    -0.108352   
C        C      0.394300000000     0.658300000000     0.966900000000    -0.108352   
O        O      0.292400000000     0.903400000000     0.544500000000    -1.3892     
O        O      0.444600000000     0.817200000000     0.360000000000    -1.3892     
O        O      0.766600000000     0.854600000000     0.518700000000    -1.3892     
O        O      0.707600000000     0.096600000000     0.044500000000    -1.3892     
O        O      0.555400000000     0.182800000000     0.860000000000    -1.3892     
O        O      0.233400000000     0.145400000000     0.018700000000    -1.3892     
O        O      0.707600000000     0.096600000000     0.455500000000    -1.3892     
O        O      0.555400000000     0.182800000000     0.640000000000    -1.3892     
O        O      0.233400000000     0.145400000000     0.481300000000    -1.3892     
O        O      0.292400000000     0.903400000000     0.955500000000    -1.3892     
O        O      0.444600000000     0.817200000000     0.140000000000    -1.3892     
O        O      0.766600000000     0.854600000000     0.981300000000    -1.3892     
F        F      0.952800000000     0.032200000000     0.648800000000    -2.03568    
F        F      0.047200000000     0.967800000000     0.148800000000    -2.03568    
F        F      0.047200000000     0.967800000000     0.351200000000    -2.03568    
F        F      0.952800000000     0.032200000000     0.851200000000    -2.03568    


