data_COF-1_original

_audit_creation_method RASPA-1.0
_audit_creation_date 2022-1-30
_audit_author_name 'Felipe Lopes de Oliveira <felipe.lopes.oliveira@ibm.com>'

_cell_length_a    6.7005
_cell_length_b    15.6529
_cell_length_c    15.6529
_cell_angle_alpha 120
_cell_angle_beta  90
_cell_angle_gamma 90
_cell_volume      1421.76

_symmetry_cell_setting          triclinic
_symmetry_space_group_name_Hall 'P 1'
_symmetry_space_group_name_H-M  'P 1'
_symmetry_Int_Tables_number     1

_symmetry_equiv_pos_as_xyz 'x,y,z'

loop_
_atom_site_label
_atom_site_type_symbol
_atom_site_fract_x
_atom_site_fract_y
_atom_site_fract_z
_atom_site_charge
B        B      0.250000000000     0.057720000000     0.115430000000     1.24348    
B        B      0.750000000000     0.942280000000     0.884570000000     1.24348    
B        B      0.250000000000     0.884570000000     0.942290000000     1.24348    
B        B      0.750000000000     0.115430000000     0.057710000000     1.24348    
B        B      0.250000000000     0.057710000000     0.942280000000     1.24348    
B        B      0.750000000000     0.942290000000     0.057720000000     1.24348    
B        B      0.250000000000     0.444660000000     0.722330000000     1.24348    
B        B      0.750000000000     0.555340000000     0.277670000000     1.24348    
B        B      0.250000000000     0.277670000000     0.722330000000     1.24348    
B        B      0.750000000000     0.722330000000     0.277670000000     1.24348    
B        B      0.250000000000     0.277670000000     0.555340000000     1.24348    
B        B      0.750000000000     0.722330000000     0.444660000000     1.24348    
H        H      0.250000000000     0.577030000000     0.927730000000    -0.00675874 
H        H      0.750000000000     0.422970000000     0.072270000000    -0.00675874 
H        H      0.250000000000     0.072270000000     0.649300000000    -0.00675874 
H        H      0.750000000000     0.927730000000     0.350700000000    -0.00675874 
H        H      0.250000000000     0.350700000000     0.422970000000    -0.00675874 
H        H      0.750000000000     0.649300000000     0.577030000000    -0.00675874 
H        H      0.750000000000     0.927730000000     0.577030000000    -0.00675874 
H        H      0.250000000000     0.072270000000     0.422970000000    -0.00675874 
H        H      0.750000000000     0.649300000000     0.072270000000    -0.00675874 
H        H      0.250000000000     0.350700000000     0.927730000000    -0.00675874 
H        H      0.750000000000     0.422970000000     0.350700000000    -0.00675874 
H        H      0.250000000000     0.577030000000     0.649300000000    -0.00675874 
H        H      0.750000000000     0.020450000000     0.761810000000    -0.00675874 
H        H      0.250000000000     0.979550000000     0.238190000000    -0.00675874 
H        H      0.750000000000     0.238190000000     0.258640000000    -0.00675874 
H        H      0.250000000000     0.761810000000     0.741360000000    -0.00675874 
H        H      0.750000000000     0.741360000000     0.979550000000    -0.00675874 
H        H      0.250000000000     0.258640000000     0.020450000000    -0.00675874 
H        H      0.250000000000     0.761810000000     0.020450000000    -0.00675874 
H        H      0.750000000000     0.238190000000     0.979550000000    -0.00675874 
H        H      0.250000000000     0.258640000000     0.238190000000    -0.00675874 
H        H      0.750000000000     0.741360000000     0.761810000000    -0.00675874 
H        H      0.250000000000     0.979550000000     0.741360000000    -0.00675874 
H        H      0.750000000000     0.020450000000     0.258640000000    -0.00675874 
C        C      0.250000000000     0.111840000000     0.383610000000    -0.122849   
C        C      0.750000000000     0.888160000000     0.616390000000    -0.122849   
C        C      0.250000000000     0.616390000000     0.728230000000    -0.122849   
C        C      0.750000000000     0.383610000000     0.271770000000    -0.122849   
C        C      0.250000000000     0.271770000000     0.888160000000    -0.122849   
C        C      0.750000000000     0.728230000000     0.111840000000    -0.122849   
C        C      0.750000000000     0.383610000000     0.111840000000    -0.122849   
C        C      0.250000000000     0.616390000000     0.888160000000    -0.122849   
C        C      0.750000000000     0.728230000000     0.616390000000    -0.122849   
C        C      0.250000000000     0.271770000000     0.383610000000    -0.122849   
C        C      0.750000000000     0.888160000000     0.271770000000    -0.122849   
C        C      0.250000000000     0.111840000000     0.728230000000    -0.122849   
C        C      0.250000000000     0.218640000000     0.437280000000    -0.122849   
C        C      0.750000000000     0.781360000000     0.562720000000    -0.122849   
C        C      0.250000000000     0.562720000000     0.781360000000    -0.122849   
C        C      0.750000000000     0.437280000000     0.218640000000    -0.122849   
C        C      0.250000000000     0.218640000000     0.781360000000    -0.122849   
C        C      0.750000000000     0.781360000000     0.218640000000    -0.122849   
C        C      0.250000000000     0.218370000000     0.276850000000    -0.122849   
C        C      0.750000000000     0.781630000000     0.723150000000    -0.122849   
C        C      0.250000000000     0.723150000000     0.941520000000    -0.122849   
C        C      0.750000000000     0.276850000000     0.058480000000    -0.122849   
C        C      0.250000000000     0.058480000000     0.781630000000    -0.122849   
C        C      0.750000000000     0.941520000000     0.218370000000    -0.122849   
C        C      0.750000000000     0.276850000000     0.218370000000    -0.122849   
C        C      0.250000000000     0.723150000000     0.781630000000    -0.122849   
C        C      0.750000000000     0.941520000000     0.723150000000    -0.122849   
C        C      0.250000000000     0.058480000000     0.276850000000    -0.122849   
C        C      0.750000000000     0.781630000000     0.058480000000    -0.122849   
C        C      0.250000000000     0.218370000000     0.941520000000    -0.122849   
C        C      0.250000000000     0.110300000000     0.889700000000    -0.122849   
C        C      0.750000000000     0.889700000000     0.110300000000    -0.122849   
C        C      0.250000000000     0.110300000000     0.220600000000    -0.122849   
C        C      0.750000000000     0.889700000000     0.779400000000    -0.122849   
C        C      0.250000000000     0.779400000000     0.889700000000    -0.122849   
C        C      0.750000000000     0.220600000000     0.110300000000    -0.122849   
O        O      0.250000000000     0.111330000000     0.055670000000    -0.861416   
O        O      0.750000000000     0.888670000000     0.944330000000    -0.861416   
O        O      0.250000000000     0.944330000000     0.055660000000    -0.861416   
O        O      0.750000000000     0.055670000000     0.944340000000    -0.861416   
O        O      0.250000000000     0.944340000000     0.888670000000    -0.861416   
O        O      0.750000000000     0.055660000000     0.111330000000    -0.861416   
O        O      0.250000000000     0.389000000000     0.778000000000    -0.861416   
O        O      0.750000000000     0.611000000000     0.222000000000    -0.861416   
O        O      0.250000000000     0.222000000000     0.611000000000    -0.861416   
O        O      0.750000000000     0.778000000000     0.389000000000    -0.861416   
O        O      0.250000000000     0.389000000000     0.611000000000    -0.861416   
O        O      0.750000000000     0.611000000000     0.389000000000    -0.861416   


