data_COGWEB_original

_audit_creation_method RASPA-1.0
_audit_creation_date 2022-1-29
_audit_author_name 'Felipe Lopes de Oliveira <felipe.lopes.oliveira@ibm.com>'

_cell_length_a    12.935
_cell_length_b    12.935
_cell_length_c    23.242
_cell_angle_alpha 90
_cell_angle_beta  90
_cell_angle_gamma 90
_cell_volume      3888.72

_symmetry_cell_setting          triclinic
_symmetry_space_group_name_Hall 'P 1'
_symmetry_space_group_name_H-M  'P 1'
_symmetry_Int_Tables_number     1

_symmetry_equiv_pos_as_xyz 'x,y,z'

loop_
_atom_site_label
_atom_site_type_symbol
_atom_site_fract_x
_atom_site_fract_y
_atom_site_fract_z
_atom_site_charge
Zn       Zn     0.252120000000     0.358930000000     0.748720000000     0.476213   
Zn       Zn     0.271130000000     0.341100000000     0.876710000000     0.476213   
Zn       Zn     0.747880000000     0.641070000000     0.248720000000     0.476213   
Zn       Zn     0.728870000000     0.658900000000     0.376710000000     0.476213   
H        H      0.591400000000     0.364600000000     0.884700000000     0.0602814  
H        H      0.746900000000     0.341000000000     0.696600000000     0.0602814  
H        H      0.566300000000     0.353900000000     0.706400000000     0.0602814  
H        H      0.782400000000     0.364000000000     0.928800000000     0.0602814  
H        H      0.949000000000     0.330000000000     0.913200000000     0.0602814  
H        H      0.918200000000     0.341300000000     0.743700000000     0.0602814  
H        H      0.260600000000     0.004400000000     0.890600000000     0.0602814  
H        H      0.231100000000     0.865800000000     0.701500000000     0.0602814  
H        H      0.299000000000     0.021200000000     0.715400000000     0.0602814  
H        H      0.235500000000     0.841300000000     0.929500000000     0.0602814  
H        H      0.251700000000     0.659600000000     0.926700000000     0.0602814  
H        H      0.228200000000     0.684100000000     0.748800000000     0.0602814  
H        H      0.216000000000     0.175400000000     0.954300000000     0.0602814  
H        H      0.210600000000     0.114100000000     0.046400000000     0.0602814  
H        H      0.228100000000     0.237800000000     0.116600000000     0.0602814  
H        H      0.391300000000     0.474600000000     0.948900000000     0.0602814  
H        H      0.429900000000     0.592500000000     0.012500000000     0.0602814  
H        H      0.435700000000     0.549300000000     0.117600000000     0.0602814  
H        H      0.073300000000     0.443700000000     0.253900000000     0.0602814  
H        H      0.041500000000     0.372200000000     0.336500000000     0.0602814  
H        H      0.548400000000     0.326300000000     0.278300000000     0.0602814  
H        H      0.512300000000     0.290600000000     0.375100000000     0.0602814  
H        H      0.175700000000     0.136400000000     0.497400000000     0.0602814  
H        H      0.107600000000     0.070400000000     0.599400000000     0.0602814  
H        H      0.211800000000     0.199800000000     0.679500000000     0.0602814  
H        H      0.312700000000     0.479600000000     0.511200000000     0.0602814  
H        H      0.372000000000     0.579800000000     0.590800000000     0.0602814  
H        H      0.307100000000     0.539600000000     0.670500000000     0.0602814  
H        H      0.408600000000     0.635400000000     0.384700000000     0.0602814  
H        H      0.253100000000     0.659000000000     0.196600000000     0.0602814  
H        H      0.433700000000     0.646100000000     0.206400000000     0.0602814  
H        H      0.217600000000     0.636000000000     0.428800000000     0.0602814  
H        H      0.051000000000     0.670000000000     0.413200000000     0.0602814  
H        H      0.081800000000     0.658700000000     0.243700000000     0.0602814  
H        H      0.739400000000     0.995600000000     0.390600000000     0.0602814  
H        H      0.768900000000     0.134200000000     0.201500000000     0.0602814  
H        H      0.701000000000     0.978800000000     0.215400000000     0.0602814  
H        H      0.764500000000     0.158700000000     0.429500000000     0.0602814  
H        H      0.748300000000     0.340400000000     0.426700000000     0.0602814  
H        H      0.771800000000     0.315900000000     0.248800000000     0.0602814  
H        H      0.784000000000     0.824600000000     0.454300000000     0.0602814  
H        H      0.789400000000     0.885900000000     0.546400000000     0.0602814  
H        H      0.771900000000     0.762200000000     0.616600000000     0.0602814  
H        H      0.608700000000     0.525400000000     0.448900000000     0.0602814  
H        H      0.570100000000     0.407500000000     0.512500000000     0.0602814  
H        H      0.564300000000     0.450700000000     0.617600000000     0.0602814  
H        H      0.926700000000     0.556300000000     0.753900000000     0.0602814  
H        H      0.958500000000     0.627800000000     0.836500000000     0.0602814  
H        H      0.451600000000     0.673700000000     0.778300000000     0.0602814  
H        H      0.487700000000     0.709400000000     0.875100000000     0.0602814  
H        H      0.824300000000     0.863600000000     0.997400000000     0.0602814  
H        H      0.892400000000     0.929600000000     0.099400000000     0.0602814  
H        H      0.788200000000     0.800200000000     0.179500000000     0.0602814  
H        H      0.687300000000     0.520400000000     0.011200000000     0.0602814  
H        H      0.628000000000     0.420200000000     0.090800000000     0.0602814  
H        H      0.692900000000     0.460400000000     0.170500000000     0.0602814  
C        C      0.451500000000     0.368800000000     0.811600000000     0.0259214  
C        C      0.573500000000     0.360700000000     0.802300000000     0.0259214  
C        C      0.624800000000     0.362100000000     0.848300000000     0.0259214  
C        C      0.747200000000     0.359400000000     0.843300000000     0.0259214  
C        C      0.786700000000     0.337100000000     0.786200000000     0.0259214  
C        C      0.716700000000     0.343500000000     0.733800000000     0.0259214  
C        C      0.611600000000     0.352600000000     0.738500000000     0.0259214  
C        C      0.808800000000     0.356000000000     0.891000000000     0.0259214  
C        C      0.906500000000     0.340800000000     0.880400000000     0.0259214  
C        C      0.959700000000     0.338300000000     0.824700000000     0.0259214  
C        C      0.890800000000     0.339100000000     0.781600000000     0.0259214  
C        C      0.238600000000     0.540600000000     0.826100000000     0.0259214  
C        C      0.274100000000     0.151100000000     0.803500000000     0.0259214  
C        C      0.266100000000     0.053200000000     0.796200000000     0.0259214  
C        C      0.262100000000     0.976500000000     0.852800000000     0.0259214  
C        C      0.261300000000     0.880800000000     0.844900000000     0.0259214  
C        C      0.255600000000     0.834500000000     0.788700000000     0.0259214  
C        C      0.249400000000     0.892700000000     0.738100000000     0.0259214  
C        C      0.271800000000     0.987200000000     0.748300000000     0.0259214  
C        C      0.247600000000     0.809900000000     0.893200000000     0.0259214  
C        C      0.250000000000     0.701200000000     0.893000000000     0.0259214  
C        C      0.249700000000     0.658600000000     0.831800000000     0.0259214  
C        C      0.242000000000     0.715800000000     0.784900000000     0.0259214  
C        C      0.070000000000     0.334200000000     0.822500000000     0.0259214  
C        C      0.240300000000     0.219000000000     0.984300000000     0.0259214  
C        C      0.230600000000     0.183200000000     0.038100000000     0.0259214  
C        C      0.251000000000     0.250800000000     0.078500000000     0.0259214  
C        C      0.309300000000     0.348200000000     0.066100000000     0.0259214  
C        C      0.303300000000     0.375600000000     0.997500000000     0.0259214  
C        C      0.369900000000     0.463300000000     0.987500000000     0.0259214  
C        C      0.403600000000     0.528000000000     0.025500000000     0.0259214  
C        C      0.403500000000     0.506900000000     0.089400000000     0.0259214  
C        C      0.350600000000     0.418300000000     0.100900000000     0.0259214  
C        C      0.417800000000     0.376600000000     0.195600000000     0.0259214  
C        C      0.234300000000     0.417000000000     0.185400000000     0.0259214  
C        C      0.223700000000     0.397900000000     0.246700000000     0.0259214  
C        C      0.127700000000     0.411000000000     0.274500000000     0.0259214  
C        C      0.111000000000     0.382000000000     0.324400000000     0.0259214  
C        C      0.186300000000     0.364200000000     0.361200000000     0.0259214  
C        C      0.285000000000     0.342900000000     0.339200000000     0.0259214  
C        C      0.302700000000     0.374000000000     0.277800000000     0.0259214  
C        C      0.395600000000     0.361600000000     0.259500000000     0.0259214  
C        C      0.480800000000     0.333500000000     0.293700000000     0.0259214  
C        C      0.459500000000     0.317200000000     0.350900000000     0.0259214  
C        C      0.379200000000     0.334900000000     0.370600000000     0.0259214  
C        C      0.365000000000     0.333900000000     0.442500000000     0.0259214  
C        C      0.188400000000     0.349900000000     0.427900000000     0.0259214  
C        C      0.236000000000     0.286600000000     0.522400000000     0.0259214  
C        C      0.185200000000     0.178000000000     0.530700000000     0.0259214  
C        C      0.147300000000     0.130800000000     0.592100000000     0.0259214  
C        C      0.198200000000     0.219300000000     0.640900000000     0.0259214  
C        C      0.222500000000     0.338800000000     0.618170000000     0.0259214  
C        C      0.256600000000     0.356800000000     0.565100000000     0.0259214  
C        C      0.303500000000     0.458200000000     0.549900000000     0.0259214  
C        C      0.332400000000     0.518500000000     0.595200000000     0.0259214  
C        C      0.303100000000     0.486800000000     0.642100000000     0.0259214  
C        C      0.548500000000     0.631200000000     0.311600000000     0.0259214  
C        C      0.426500000000     0.639300000000     0.302300000000     0.0259214  
C        C      0.375200000000     0.637900000000     0.348300000000     0.0259214  
C        C      0.252800000000     0.640600000000     0.343300000000     0.0259214  
C        C      0.213300000000     0.662900000000     0.286200000000     0.0259214  
C        C      0.283300000000     0.656500000000     0.233800000000     0.0259214  
C        C      0.388400000000     0.647400000000     0.238500000000     0.0259214  
C        C      0.191200000000     0.644000000000     0.391000000000     0.0259214  
C        C      0.093500000000     0.659200000000     0.380400000000     0.0259214  
C        C      0.040300000000     0.661700000000     0.324700000000     0.0259214  
C        C      0.109200000000     0.660900000000     0.281600000000     0.0259214  
C        C      0.761400000000     0.459400000000     0.326100000000     0.0259214  
C        C      0.725900000000     0.848900000000     0.303500000000     0.0259214  
C        C      0.733900000000     0.946800000000     0.296200000000     0.0259214  
C        C      0.737900000000     0.023500000000     0.352800000000     0.0259214  
C        C      0.738700000000     0.119200000000     0.344900000000     0.0259214  
C        C      0.744400000000     0.165500000000     0.288700000000     0.0259214  
C        C      0.750600000000     0.107300000000     0.238100000000     0.0259214  
C        C      0.728200000000     0.012800000000     0.248300000000     0.0259214  
C        C      0.752400000000     0.190100000000     0.393200000000     0.0259214  
C        C      0.750000000000     0.298800000000     0.393000000000     0.0259214  
C        C      0.750300000000     0.341400000000     0.331800000000     0.0259214  
C        C      0.758000000000     0.284200000000     0.284900000000     0.0259214  
C        C      0.930000000000     0.665800000000     0.322500000000     0.0259214  
C        C      0.759700000000     0.781000000000     0.484300000000     0.0259214  
C        C      0.769400000000     0.816800000000     0.538100000000     0.0259214  
C        C      0.749000000000     0.749200000000     0.578500000000     0.0259214  
C        C      0.690700000000     0.651800000000     0.566100000000     0.0259214  
C        C      0.696700000000     0.624400000000     0.497500000000     0.0259214  
C        C      0.630100000000     0.536700000000     0.487500000000     0.0259214  
C        C      0.596400000000     0.472000000000     0.525500000000     0.0259214  
C        C      0.596500000000     0.493100000000     0.589400000000     0.0259214  
C        C      0.649400000000     0.581700000000     0.600900000000     0.0259214  
C        C      0.582200000000     0.623400000000     0.695600000000     0.0259214  
C        C      0.765700000000     0.583000000000     0.685400000000     0.0259214  
C        C      0.776300000000     0.602100000000     0.746700000000     0.0259214  
C        C      0.872300000000     0.589000000000     0.774500000000     0.0259214  
C        C      0.889000000000     0.618000000000     0.824400000000     0.0259214  
C        C      0.813700000000     0.635800000000     0.861200000000     0.0259214  
C        C      0.715000000000     0.657100000000     0.839200000000     0.0259214  
C        C      0.697300000000     0.626000000000     0.777800000000     0.0259214  
C        C      0.604400000000     0.638400000000     0.759500000000     0.0259214  
C        C      0.519200000000     0.666500000000     0.793700000000     0.0259214  
C        C      0.540500000000     0.682800000000     0.850900000000     0.0259214  
C        C      0.620800000000     0.665100000000     0.870600000000     0.0259214  
C        C      0.635000000000     0.666100000000     0.942500000000     0.0259214  
C        C      0.811600000000     0.650100000000     0.927900000000     0.0259214  
C        C      0.764000000000     0.713400000000     0.022400000000     0.0259214  
C        C      0.814800000000     0.822000000000     0.030700000000     0.0259214  
C        C      0.852700000000     0.869200000000     0.092100000000     0.0259214  
C        C      0.801800000000     0.780700000000     0.140900000000     0.0259214  
C        C      0.777500000000     0.661200000000     0.118170000000     0.0259214  
C        C      0.743400000000     0.643200000000     0.065100000000     0.0259214  
C        C      0.696500000000     0.541800000000     0.049900000000     0.0259214  
C        C      0.667600000000     0.481500000000     0.095200000000     0.0259214  
C        C      0.696900000000     0.513200000000     0.142100000000     0.0259214  
N        N      0.280700000000     0.309700000000     0.968500000000    -0.189448   
N        N      0.326000000000     0.402900000000     0.168300000000    -0.189448   
N        N      0.252600000000     0.323800000000     0.457500000000    -0.189448   
N        N      0.265700000000     0.395200000000     0.665500000000    -0.189448   
N        N      0.719300000000     0.690300000000     0.468500000000    -0.189448   
N        N      0.674000000000     0.597100000000     0.668300000000    -0.189448   
N        N      0.747400000000     0.676200000000     0.957500000000    -0.189448   
N        N      0.734300000000     0.604800000000     0.165500000000    -0.189448   
O        O      0.420400000000     0.366900000000     0.856200000000    -0.277843   
O        O      0.414900000000     0.380400000000     0.761500000000    -0.277843   
O        O      0.245600000000     0.494500000000     0.869200000000    -0.277843   
O        O      0.246800000000     0.506500000000     0.777600000000    -0.277843   
O        O      0.280800000000     0.195400000000     0.857700000000    -0.277843   
O        O      0.261800000000     0.204300000000     0.756700000000    -0.277843   
O        O      0.119400000000     0.328100000000     0.866700000000    -0.277843   
O        O      0.100200000000     0.349200000000     0.768800000000    -0.277843   
O        O      0.160500000000     0.444700000000     0.157100000000    -0.277843   
O        O      0.496500000000     0.352000000000     0.175200000000    -0.277843   
O        O      0.077200000000     0.341100000000     0.450300000000    -0.277843   
O        O      0.427600000000     0.283000000000     0.471600000000    -0.277843   
O        O      0.579600000000     0.633100000000     0.356200000000    -0.277843   
O        O      0.585100000000     0.619600000000     0.261500000000    -0.277843   
O        O      0.754400000000     0.505500000000     0.369200000000    -0.277843   
O        O      0.753200000000     0.493500000000     0.277600000000    -0.277843   
O        O      0.719200000000     0.804600000000     0.357700000000    -0.277843   
O        O      0.738200000000     0.795700000000     0.256700000000    -0.277843   
O        O      0.880600000000     0.671900000000     0.366700000000    -0.277843   
O        O      0.899800000000     0.650800000000     0.268800000000    -0.277843   
O        O      0.839500000000     0.555300000000     0.657100000000    -0.277843   
O        O      0.503500000000     0.648000000000     0.675200000000    -0.277843   
O        O      0.922800000000     0.658900000000     0.950300000000    -0.277843   
O        O      0.572400000000     0.717000000000     0.971600000000    -0.277843   


