data_COMDOY_original

_audit_creation_method RASPA-1.0
_audit_creation_date 2022-1-30
_audit_author_name 'Felipe Lopes de Oliveira <felipe.lopes.oliveira@ibm.com>'

_cell_length_a    6.734
_cell_length_b    11.062
_cell_length_c    11.1809
_cell_angle_alpha 119.649
_cell_angle_beta  107.526
_cell_angle_gamma 90
_cell_volume      678.991

_symmetry_cell_setting          triclinic
_symmetry_space_group_name_Hall 'P 1'
_symmetry_space_group_name_H-M  'P 1'
_symmetry_Int_Tables_number     1

_symmetry_equiv_pos_as_xyz 'x,y,z'

loop_
_atom_site_label
_atom_site_type_symbol
_atom_site_fract_x
_atom_site_fract_y
_atom_site_fract_z
_atom_site_charge
Ga       Ga     0.000000000000     0.500000000000     0.000000000000     5.19973    
Ga       Ga     0.500000000000     0.500000000000     0.000000000000     5.19973    
H        H      0.233700000000     0.897400000000     0.385200000000     0.181313   
H        H      0.266300000000     0.512200000000     0.614800000000     0.181313   
H        H      0.348500000000     0.102600000000     0.614800000000     0.181313   
H        H      0.151500000000     0.487800000000     0.385200000000     0.181313   
H        H      0.766300000000     0.102600000000     0.614800000000     0.181313   
H        H      0.733700000000     0.487800000000     0.385200000000     0.181313   
H        H      0.651500000000     0.897400000000     0.385200000000     0.181313   
H        H      0.848500000000     0.512200000000     0.614800000000     0.181313   
H        H      0.750000000000     0.347000000000     0.000000000000     0.181313   
H        H      0.250000000000     0.653000000000     0.000000000000     0.181313   
C        C      0.136200000000     0.937700000000     0.430600000000     0.219912   
C        C      0.363800000000     0.507100000000     0.569400000000     0.219912   
C        C      0.205600000000     0.062300000000     0.569400000000     0.219912   
C        C      0.294400000000     0.492900000000     0.430600000000     0.219912   
C        C      0.863800000000     0.062300000000     0.569400000000     0.219912   
C        C      0.636200000000     0.492900000000     0.430600000000     0.219912   
C        C      0.794400000000     0.937700000000     0.430600000000     0.219912   
C        C      0.705600000000     0.507100000000     0.569400000000     0.219912   
C        C      0.931300000000     0.876100000000     0.362600000000     0.219912   
C        C      0.855800000000     0.739700000000     0.211600000000     0.219912   
C        C      0.568700000000     0.513500000000     0.637400000000     0.219912   
C        C      0.644200000000     0.528100000000     0.788400000000     0.219912   
C        C      0.068700000000     0.123900000000     0.637400000000     0.219912   
C        C      0.144200000000     0.260300000000     0.788400000000     0.219912   
C        C      0.431300000000     0.486500000000     0.362600000000     0.219912   
C        C      0.355800000000     0.471900000000     0.211600000000     0.219912   
O        O      0.989800000000     0.690500000000     0.158000000000    -1.57312    
O        O      0.510200000000     0.532500000000     0.842000000000    -1.57312    
O        O      0.331800000000     0.309500000000     0.842000000000    -1.57312    
O        O      0.168200000000     0.467500000000     0.158000000000    -1.57312    
O        O      0.010200000000     0.309500000000     0.842000000000    -1.57312    
O        O      0.489800000000     0.467500000000     0.158000000000    -1.57312    
O        O      0.668200000000     0.690500000000     0.158000000000    -1.57312    
O        O      0.831800000000     0.532500000000     0.842000000000    -1.57312    
O        O      0.750000000000     0.420800000000     0.000000000000    -1.57312    
O        O      0.250000000000     0.579200000000     0.000000000000    -1.57312    


