data_CUNXIS10_original

_audit_creation_method RASPA-1.0
_audit_creation_date 2022-1-31
_audit_author_name 'Felipe Lopes de Oliveira <felipe.lopes.oliveira@ibm.com>'

_cell_length_a    8.668
_cell_length_b    9.186
_cell_length_c    17.558
_cell_angle_alpha 90
_cell_angle_beta  90
_cell_angle_gamma 107.75
_cell_volume      1331.49

_symmetry_cell_setting          triclinic
_symmetry_space_group_name_Hall 'P 1'
_symmetry_space_group_name_H-M  'P 1'
_symmetry_Int_Tables_number     1

_symmetry_equiv_pos_as_xyz 'x,y,z'

loop_
_atom_site_label
_atom_site_type_symbol
_atom_site_fract_x
_atom_site_fract_y
_atom_site_fract_z
_atom_site_charge
Al       Al     0.916700000000     0.715000000000     0.702700000000     7.20834    
Al       Al     0.857300000000     0.844900000000     0.888700000000     7.20834    
Al       Al     0.464200000000     0.819600000000     0.676400000000     7.20834    
Al       Al     0.583300000000     0.785000000000     0.202700000000     7.20834    
Al       Al     0.642700000000     0.655100000000     0.388700000000     7.20834    
Al       Al     0.035800000000     0.680400000000     0.176400000000     7.20834    
Al       Al     0.083300000000     0.285000000000     0.297300000000     7.20834    
Al       Al     0.142700000000     0.155100000000     0.111300000000     7.20834    
Al       Al     0.535800000000     0.180400000000     0.323600000000     7.20834    
Al       Al     0.416700000000     0.215000000000     0.797300000000     7.20834    
Al       Al     0.357300000000     0.344900000000     0.611300000000     7.20834    
Al       Al     0.964200000000     0.319600000000     0.823600000000     7.20834    
P        P      0.640300000000     0.652500000000     0.574200000000     1.77159    
P        P      0.183600000000     0.534600000000     0.705600000000     1.77159    
P        P      0.724700000000     0.510400000000     0.830500000000     1.77159    
P        P      0.859700000000     0.847500000000     0.074200000000     1.77159    
P        P      0.316400000000     0.965400000000     0.205600000000     1.77159    
P        P      0.775300000000     0.989600000000     0.330500000000     1.77159    
P        P      0.359700000000     0.347500000000     0.425800000000     1.77159    
P        P      0.816400000000     0.465400000000     0.294400000000     1.77159    
P        P      0.275300000000     0.489600000000     0.169500000000     1.77159    
P        P      0.140300000000     0.152500000000     0.925800000000     1.77159    
P        P      0.683600000000     0.034600000000     0.794400000000     1.77159    
P        P      0.224700000000     0.010400000000     0.669500000000     1.77159    
O        O      0.951700000000     0.819200000000     0.793400000000    -2.07229    
O        O      0.796500000000     0.706600000000     0.619300000000    -2.07229    
O        O      0.748300000000     0.561700000000     0.747400000000    -2.07229    
O        O      0.047400000000     0.599400000000     0.686900000000    -2.07229    
O        O      0.560700000000     0.390800000000     0.842300000000    -2.07229    
O        O      0.534800000000     0.754100000000     0.594700000000    -2.07229    
O        O      0.135400000000     0.423900000000     0.772600000000    -2.07229    
O        O      0.858600000000     0.441300000000     0.854300000000    -2.07229    
O        O      0.336900000000     0.665700000000     0.727400000000    -2.07229    
O        O      0.734200000000     0.644500000000     0.883700000000    -2.07229    
O        O      0.548300000000     0.488600000000     0.593900000000    -2.07229    
O        O      0.684000000000     0.672800000000     0.491000000000    -2.07229    
O        O      0.220500000000     0.449600000000     0.637100000000    -2.07229    
O        O      0.548300000000     0.680800000000     0.293400000000    -2.07229    
O        O      0.703500000000     0.793400000000     0.119300000000    -2.07229    
O        O      0.751700000000     0.938300000000     0.247400000000    -2.07229    
O        O      0.452600000000     0.900600000000     0.186900000000    -2.07229    
O        O      0.939300000000     0.109200000000     0.342300000000    -2.07229    
O        O      0.965200000000     0.745900000000     0.094700000000    -2.07229    
O        O      0.364600000000     0.076100000000     0.272600000000    -2.07229    
O        O      0.641400000000     0.058700000000     0.354300000000    -2.07229    
O        O      0.163100000000     0.834300000000     0.227400000000    -2.07229    
O        O      0.765800000000     0.855500000000     0.383700000000    -2.07229    
O        O      0.951700000000     0.011400000000     0.093900000000    -2.07229    
O        O      0.816000000000     0.827200000000     0.991000000000    -2.07229    
O        O      0.279500000000     0.050400000000     0.137100000000    -2.07229    
O        O      0.048300000000     0.180800000000     0.206600000000    -2.07229    
O        O      0.203500000000     0.293400000000     0.380700000000    -2.07229    
O        O      0.251700000000     0.438300000000     0.252600000000    -2.07229    
O        O      0.952600000000     0.400600000000     0.313100000000    -2.07229    
O        O      0.439300000000     0.609200000000     0.157700000000    -2.07229    
O        O      0.465200000000     0.245900000000     0.405300000000    -2.07229    
O        O      0.864600000000     0.576100000000     0.227400000000    -2.07229    
O        O      0.141400000000     0.558700000000     0.145700000000    -2.07229    
O        O      0.663100000000     0.334300000000     0.272600000000    -2.07229    
O        O      0.265800000000     0.355500000000     0.116300000000    -2.07229    
O        O      0.451700000000     0.511400000000     0.406100000000    -2.07229    
O        O      0.316000000000     0.327200000000     0.509000000000    -2.07229    
O        O      0.779500000000     0.550400000000     0.362900000000    -2.07229    
O        O      0.451700000000     0.319200000000     0.706600000000    -2.07229    
O        O      0.296500000000     0.206600000000     0.880700000000    -2.07229    
O        O      0.248300000000     0.061700000000     0.752600000000    -2.07229    
O        O      0.547400000000     0.099400000000     0.813100000000    -2.07229    
O        O      0.060700000000     0.890800000000     0.657700000000    -2.07229    
O        O      0.034800000000     0.254100000000     0.905300000000    -2.07229    
O        O      0.635400000000     0.923900000000     0.727400000000    -2.07229    
O        O      0.358600000000     0.941300000000     0.645700000000    -2.07229    
O        O      0.836900000000     0.165700000000     0.772600000000    -2.07229    
O        O      0.234200000000     0.144500000000     0.616300000000    -2.07229    
O        O      0.048300000000     0.988600000000     0.906100000000    -2.07229    
O        O      0.184000000000     0.172800000000     0.009000000000    -2.07229    
O        O      0.720500000000     0.949600000000     0.862900000000    -2.07229    


