data_CUYVOI_original

_audit_creation_method RASPA-1.0
_audit_creation_date 2022-1-29
_audit_author_name 'Felipe Lopes de Oliveira <felipe.lopes.oliveira@ibm.com>'

_cell_length_a    8.985
_cell_length_b    19.114
_cell_length_c    19.9947
_cell_angle_alpha 92.3756
_cell_angle_beta  102.984
_cell_angle_gamma 90
_cell_volume      3343.05

_symmetry_cell_setting          triclinic
_symmetry_space_group_name_Hall 'P 1'
_symmetry_space_group_name_H-M  'P 1'
_symmetry_Int_Tables_number     1

_symmetry_equiv_pos_as_xyz 'x,y,z'

loop_
_atom_site_label
_atom_site_type_symbol
_atom_site_fract_x
_atom_site_fract_y
_atom_site_fract_z
_atom_site_charge
Zn       Zn     0.404120000000     0.401030000000     0.453000000000     0.428444   
Zn       Zn     0.955020000000     0.911220000000     0.058140000000     0.428444   
Zn       Zn     0.951120000000     0.098970000000     0.547000000000     0.428444   
Zn       Zn     0.896880000000     0.588780000000     0.941860000000     0.428444   
Zn       Zn     0.595880000000     0.598970000000     0.547000000000     0.428444   
Zn       Zn     0.044980000000     0.088780000000     0.941860000000     0.428444   
Zn       Zn     0.048880000000     0.901030000000     0.453000000000     0.428444   
Zn       Zn     0.103120000000     0.411220000000     0.058140000000     0.428444   
H        H      0.763200000000     0.798100000000     0.402000000000     0.0627999  
H        H      0.768300000000     0.683600000000     0.342600000000     0.0627999  
H        H      0.191100000000     0.760400000000     0.399400000000     0.0627999  
H        H      0.174000000000     0.636100000000     0.355600000000     0.0627999  
H        H      0.015600000000     0.598200000000     0.343400000000     0.0627999  
H        H      0.269500000000     0.590200000000     0.250000000000     0.0627999  
H        H      0.134900000000     0.552700000000     0.197600000000     0.0627999  
H        H      0.372900000000     0.529700000000     0.359400000000     0.0627999  
H        H      0.063100000000     0.385500000000     0.355000000000     0.0627999  
H        H      0.970300000000     0.458100000000     0.256400000000     0.0627999  
H        H      0.189300000000     0.680600000000     0.194800000000     0.0627999  
H        H      0.213000000000     0.716200000000     0.268000000000     0.0627999  
H        H      0.917400000000     0.793300000000     0.270800000000     0.0627999  
H        H      0.832500000000     0.886500000000     0.191600000000     0.0627999  
H        H      0.107800000000     0.766600000000     0.111800000000     0.0627999  
H        H      0.829600000000     0.650200000000     0.236800000000     0.0627999  
H        H      0.868900000000     0.572200000000     0.222400000000     0.0627999  
H        H      0.663300000000     0.692600000000     0.128800000000     0.0627999  
H        H      0.654000000000     0.681600000000     0.006200000000     0.0627999  
H        H      0.009600000000     0.576400000000     0.099800000000     0.0627999  
H        H      0.546500000000     0.990300000000     0.117600000000     0.0627999  
H        H      0.000000000000     0.389700000000     0.540800000000     0.0627999  
H        H      0.361200000000     0.701900000000     0.598000000000     0.0627999  
H        H      0.425700000000     0.816400000000     0.657400000000     0.0627999  
H        H      0.791700000000     0.739600000000     0.600600000000     0.0627999  
H        H      0.818400000000     0.863900000000     0.644400000000     0.0627999  
H        H      0.672200000000     0.901800000000     0.656600000000     0.0627999  
H        H      0.019500000000     0.909800000000     0.750000000000     0.0627999  
H        H      0.937300000000     0.947300000000     0.802400000000     0.0627999  
H        H      0.013500000000     0.970300000000     0.640600000000     0.0627999  
H        H      0.708100000000     0.114500000000     0.645000000000     0.0627999  
H        H      0.713900000000     0.041900000000     0.743600000000     0.0627999  
H        H      0.994500000000     0.819400000000     0.805200000000     0.0627999  
H        H      0.945000000000     0.783800000000     0.732000000000     0.0627999  
H        H      0.646600000000     0.706700000000     0.729200000000     0.0627999  
H        H      0.640900000000     0.613500000000     0.808400000000     0.0627999  
H        H      0.996000000000     0.733400000000     0.888200000000     0.0627999  
H        H      0.592800000000     0.849800000000     0.763200000000     0.0627999  
H        H      0.646500000000     0.927800000000     0.777600000000     0.0627999  
H        H      0.534500000000     0.807400000000     0.871200000000     0.0627999  
H        H      0.647800000000     0.818400000000     0.993800000000     0.0627999  
H        H      0.909800000000     0.923600000000     0.900200000000     0.0627999  
H        H      0.428900000000     0.509700000000     0.882400000000     0.0627999  
H        H      0.459200000000     0.110300000000     0.459200000000     0.0627999  
H        H      0.236800000000     0.201900000000     0.598000000000     0.0627999  
H        H      0.231700000000     0.316400000000     0.657400000000     0.0627999  
H        H      0.808900000000     0.239600000000     0.600600000000     0.0627999  
H        H      0.826000000000     0.363900000000     0.644400000000     0.0627999  
H        H      0.984400000000     0.401800000000     0.656600000000     0.0627999  
H        H      0.730500000000     0.409800000000     0.750000000000     0.0627999  
H        H      0.865100000000     0.447300000000     0.802400000000     0.0627999  
H        H      0.627100000000     0.470300000000     0.640600000000     0.0627999  
H        H      0.936900000000     0.614500000000     0.645000000000     0.0627999  
H        H      0.029700000000     0.541900000000     0.743600000000     0.0627999  
H        H      0.810700000000     0.319400000000     0.805200000000     0.0627999  
H        H      0.787000000000     0.283800000000     0.732000000000     0.0627999  
H        H      0.082600000000     0.206700000000     0.729200000000     0.0627999  
H        H      0.167500000000     0.113500000000     0.808400000000     0.0627999  
H        H      0.892200000000     0.233400000000     0.888200000000     0.0627999  
H        H      0.170400000000     0.349800000000     0.763200000000     0.0627999  
H        H      0.131100000000     0.427800000000     0.777600000000     0.0627999  
H        H      0.336700000000     0.307400000000     0.871200000000     0.0627999  
H        H      0.346000000000     0.318400000000     0.993800000000     0.0627999  
H        H      0.990400000000     0.423600000000     0.900200000000     0.0627999  
H        H      0.453500000000     0.009700000000     0.882400000000     0.0627999  
H        H      0.000000000000     0.610300000000     0.459200000000     0.0627999  
H        H      0.638800000000     0.298100000000     0.402000000000     0.0627999  
H        H      0.574300000000     0.183600000000     0.342600000000     0.0627999  
H        H      0.208300000000     0.260400000000     0.399400000000     0.0627999  
H        H      0.181600000000     0.136100000000     0.355600000000     0.0627999  
H        H      0.327800000000     0.098200000000     0.343400000000     0.0627999  
H        H      0.980500000000     0.090200000000     0.250000000000     0.0627999  
H        H      0.062700000000     0.052700000000     0.197600000000     0.0627999  
H        H      0.986500000000     0.029700000000     0.359400000000     0.0627999  
H        H      0.291900000000     0.885500000000     0.355000000000     0.0627999  
H        H      0.286100000000     0.958100000000     0.256400000000     0.0627999  
H        H      0.005500000000     0.180600000000     0.194800000000     0.0627999  
H        H      0.055000000000     0.216200000000     0.268000000000     0.0627999  
H        H      0.353400000000     0.293300000000     0.270800000000     0.0627999  
H        H      0.359100000000     0.386500000000     0.191600000000     0.0627999  
H        H      0.004000000000     0.266600000000     0.111800000000     0.0627999  
H        H      0.407200000000     0.150200000000     0.236800000000     0.0627999  
H        H      0.353500000000     0.072200000000     0.222400000000     0.0627999  
H        H      0.465500000000     0.192600000000     0.128800000000     0.0627999  
H        H      0.352200000000     0.181600000000     0.006200000000     0.0627999  
H        H      0.090200000000     0.076400000000     0.099800000000     0.0627999  
H        H      0.571100000000     0.490300000000     0.117600000000     0.0627999  
H        H      0.540800000000     0.889700000000     0.540800000000     0.0627999  
C        C      0.849980000000     0.776100000000     0.393560000000     0.0354598  
C        C      0.851440000000     0.713000000000     0.360480000000     0.0354598  
C        C      0.085510000000     0.756100000000     0.392020000000     0.0354598  
C        C      0.067600000000     0.638900000000     0.331800000000     0.0354598  
C        C      0.059700000000     0.634000000000     0.253600000000     0.0354598  
C        C      0.166580000000     0.571900000000     0.244360000000     0.0354598  
C        C      0.284350000000     0.502600000000     0.346100000000     0.0354598  
C        C      0.114450000000     0.423800000000     0.343300000000     0.0354598  
C        C      0.061870000000     0.463900000000     0.288940000000     0.0354598  
C        C      0.136050000000     0.697700000000     0.229300000000     0.0354598  
C        C      0.944830000000     0.799200000000     0.229260000000     0.0354598  
C        C      0.898760000000     0.850600000000     0.185520000000     0.0354598  
C        C      0.049550000000     0.784900000000     0.141300000000     0.0354598  
C        C      0.894650000000     0.620300000000     0.215500000000     0.0354598  
C        C      0.731570000000     0.668100000000     0.108140000000     0.0354598  
C        C      0.727080000000     0.661800000000     0.040560000000     0.0354598  
C        C      0.922620000000     0.604000000000     0.091640000000     0.0354598  
C        C      0.262630000000     0.949100000000     0.065260000000     0.0354598  
C        C      0.385730000000     0.973800000000     0.029860000000     0.0354598  
C        C      0.355400000000     0.980800000000     0.958600000000     0.0354598  
C        C      0.528380000000     0.993900000000     0.070160000000     0.0354598  
C        C      0.208670000000     0.959200000000     0.909940000000     0.0354598  
C        C      0.278860000000     0.434000000000     0.573920000000     0.0354598  
C        C      0.137980000000     0.468900000000     0.532960000000     0.0354598  
C        C      0.000260000000     0.434400000000     0.524120000000     0.0354598  
C        C      0.138510000000     0.537400000000     0.508220000000     0.0354598  
C        C      0.283270000000     0.577100000000     0.511140000000     0.0354598  
C        C      0.456420000000     0.723900000000     0.606440000000     0.0354598  
C        C      0.490960000000     0.787000000000     0.639520000000     0.0354598  
C        C      0.693490000000     0.743900000000     0.607980000000     0.0354598  
C        C      0.735800000000     0.861100000000     0.668200000000     0.0354598  
C        C      0.806100000000     0.866000000000     0.746400000000     0.0354598  
C        C      0.922220000000     0.928100000000     0.755640000000     0.0354598  
C        C      0.938250000000     0.997400000000     0.653900000000     0.0354598  
C        C      0.771150000000     0.076200000000     0.656700000000     0.0354598  
C        C      0.772930000000     0.036100000000     0.711060000000     0.0354598  
C        C      0.906750000000     0.802300000000     0.770700000000     0.0354598  
C        C      0.715570000000     0.700800000000     0.770740000000     0.0354598  
C        C      0.713240000000     0.649400000000     0.814480000000     0.0354598  
C        C      0.908250000000     0.715100000000     0.858700000000     0.0354598  
C        C      0.679150000000     0.879700000000     0.784500000000     0.0354598  
C        C      0.623430000000     0.831900000000     0.891860000000     0.0354598  
C        C      0.686520000000     0.838200000000     0.959440000000     0.0354598  
C        C      0.830980000000     0.896000000000     0.908360000000     0.0354598  
C        C      0.197370000000     0.550900000000     0.934740000000     0.0354598  
C        C      0.355870000000     0.526200000000     0.970140000000     0.0354598  
C        C      0.396800000000     0.519200000000     0.041400000000     0.0354598  
C        C      0.458220000000     0.506100000000     0.929840000000     0.0354598  
C        C      0.298730000000     0.540800000000     0.090060000000     0.0354598  
C        C      0.704940000000     0.066000000000     0.426080000000     0.0354598  
C        C      0.605020000000     0.031100000000     0.467040000000     0.0354598  
C        C      0.476140000000     0.065600000000     0.475880000000     0.0354598  
C        C      0.630290000000     0.962600000000     0.491780000000     0.0354598  
C        C      0.772130000000     0.922900000000     0.488860000000     0.0354598  
C        C      0.150020000000     0.223900000000     0.606440000000     0.0354598  
C        C      0.148560000000     0.287000000000     0.639520000000     0.0354598  
C        C      0.914490000000     0.243900000000     0.607980000000     0.0354598  
C        C      0.932400000000     0.361100000000     0.668200000000     0.0354598  
C        C      0.940300000000     0.366000000000     0.746400000000     0.0354598  
C        C      0.833420000000     0.428100000000     0.755640000000     0.0354598  
C        C      0.715650000000     0.497400000000     0.653900000000     0.0354598  
C        C      0.885550000000     0.576200000000     0.656700000000     0.0354598  
C        C      0.938130000000     0.536100000000     0.711060000000     0.0354598  
C        C      0.863950000000     0.302300000000     0.770700000000     0.0354598  
C        C      0.055170000000     0.200800000000     0.770740000000     0.0354598  
C        C      0.101240000000     0.149400000000     0.814480000000     0.0354598  
C        C      0.950450000000     0.215100000000     0.858700000000     0.0354598  
C        C      0.105350000000     0.379700000000     0.784500000000     0.0354598  
C        C      0.268430000000     0.331900000000     0.891860000000     0.0354598  
C        C      0.272920000000     0.338200000000     0.959440000000     0.0354598  
C        C      0.077380000000     0.396000000000     0.908360000000     0.0354598  
C        C      0.737370000000     0.050900000000     0.934740000000     0.0354598  
C        C      0.614270000000     0.026200000000     0.970140000000     0.0354598  
C        C      0.644600000000     0.019200000000     0.041400000000     0.0354598  
C        C      0.471620000000     0.006100000000     0.929840000000     0.0354598  
C        C      0.791330000000     0.040800000000     0.090060000000     0.0354598  
C        C      0.721140000000     0.566000000000     0.426080000000     0.0354598  
C        C      0.862020000000     0.531100000000     0.467040000000     0.0354598  
C        C      0.999740000000     0.565600000000     0.475880000000     0.0354598  
C        C      0.861490000000     0.462600000000     0.491780000000     0.0354598  
C        C      0.716730000000     0.422900000000     0.488860000000     0.0354598  
C        C      0.543580000000     0.276100000000     0.393560000000     0.0354598  
C        C      0.509040000000     0.213000000000     0.360480000000     0.0354598  
C        C      0.306510000000     0.256100000000     0.392020000000     0.0354598  
C        C      0.264200000000     0.138900000000     0.331800000000     0.0354598  
C        C      0.193900000000     0.134000000000     0.253600000000     0.0354598  
C        C      0.077780000000     0.071900000000     0.244360000000     0.0354598  
C        C      0.061750000000     0.002600000000     0.346100000000     0.0354598  
C        C      0.228850000000     0.923800000000     0.343300000000     0.0354598  
C        C      0.227070000000     0.963900000000     0.288940000000     0.0354598  
C        C      0.093250000000     0.197700000000     0.229300000000     0.0354598  
C        C      0.284430000000     0.299200000000     0.229260000000     0.0354598  
C        C      0.286760000000     0.350600000000     0.185520000000     0.0354598  
C        C      0.091750000000     0.284900000000     0.141300000000     0.0354598  
C        C      0.320850000000     0.120300000000     0.215500000000     0.0354598  
C        C      0.376570000000     0.168100000000     0.108140000000     0.0354598  
C        C      0.313480000000     0.161800000000     0.040560000000     0.0354598  
C        C      0.169020000000     0.104000000000     0.091640000000     0.0354598  
C        C      0.802630000000     0.449100000000     0.065260000000     0.0354598  
C        C      0.644130000000     0.473800000000     0.029860000000     0.0354598  
C        C      0.603200000000     0.480800000000     0.958600000000     0.0354598  
C        C      0.541780000000     0.493900000000     0.070160000000     0.0354598  
C        C      0.701270000000     0.459200000000     0.909940000000     0.0354598  
C        C      0.295060000000     0.934000000000     0.573920000000     0.0354598  
C        C      0.394980000000     0.968900000000     0.532960000000     0.0354598  
C        C      0.523860000000     0.934400000000     0.524120000000     0.0354598  
C        C      0.369710000000     0.037400000000     0.508220000000     0.0354598  
C        C      0.227870000000     0.077100000000     0.511140000000     0.0354598  
N        N      0.995570000000     0.802800000000     0.412740000000    -0.127833   
N        N      0.002850000000     0.701400000000     0.358900000000    -0.127833   
N        N      0.254690000000     0.448100000000     0.378180000000    -0.127833   
N        N      0.170440000000     0.514700000000     0.291280000000    -0.127833   
N        N      0.040170000000     0.756700000000     0.200540000000    -0.127833   
N        N      0.966160000000     0.841500000000     0.130120000000    -0.127833   
N        N      0.847210000000     0.621700000000     0.030220000000    -0.127833   
N        N      0.855870000000     0.631300000000     0.140740000000    -0.127833   
N        N      0.582830000000     0.697200000000     0.587260000000    -0.127833   
N        N      0.643950000000     0.798600000000     0.641100000000    -0.127833   
N        N      0.876510000000     0.051900000000     0.621820000000    -0.127833   
N        N      0.879160000000     0.985300000000     0.708720000000    -0.127833   
N        N      0.839630000000     0.743300000000     0.799460000000    -0.127833   
N        N      0.836040000000     0.658500000000     0.869880000000    -0.127833   
N        N      0.816990000000     0.878300000000     0.969780000000    -0.127833   
N        N      0.715130000000     0.868700000000     0.859260000000    -0.127833   
N        N      0.004430000000     0.197200000000     0.587260000000    -0.127833   
N        N      0.997150000000     0.298600000000     0.641100000000    -0.127833   
N        N      0.745310000000     0.551900000000     0.621820000000    -0.127833   
N        N      0.829560000000     0.485300000000     0.708720000000    -0.127833   
N        N      0.959830000000     0.243300000000     0.799460000000    -0.127833   
N        N      0.033840000000     0.158500000000     0.869880000000    -0.127833   
N        N      0.152790000000     0.378300000000     0.969780000000    -0.127833   
N        N      0.144130000000     0.368700000000     0.859260000000    -0.127833   
N        N      0.417170000000     0.302800000000     0.412740000000    -0.127833   
N        N      0.356050000000     0.201400000000     0.358900000000    -0.127833   
N        N      0.123490000000     0.948100000000     0.378180000000    -0.127833   
N        N      0.120840000000     0.014700000000     0.291280000000    -0.127833   
N        N      0.160370000000     0.256700000000     0.200540000000    -0.127833   
N        N      0.163960000000     0.341500000000     0.130120000000    -0.127833   
N        N      0.183010000000     0.121700000000     0.030220000000    -0.127833   
N        N      0.284870000000     0.131300000000     0.140740000000    -0.127833   
O        O      0.291680000000     0.945300000000     0.127960000000    -0.271654   
O        O      0.134610000000     0.935100000000     0.025420000000    -0.271654   
O        O      0.198760000000     0.900400000000     0.882520000000    -0.271654   
O        O      0.105170000000     0.005540000000     0.894940000000    -0.271654   
O        O      0.354380000000     0.394200000000     0.541560000000    -0.271654   
O        O      0.303480000000     0.440600000000     0.636760000000    -0.271654   
O        O      0.406390000000     0.548600000000     0.542980000000    -0.271654   
O        O      0.279730000000     0.633100000000     0.483460000000    -0.271654   
O        O      0.163720000000     0.554700000000     0.872040000000    -0.271654   
O        O      0.109190000000     0.564900000000     0.974580000000    -0.271654   
O        O      0.316240000000     0.599600000000     0.117480000000    -0.271654   
O        O      0.210230000000     0.494460000000     0.105060000000    -0.271654   
O        O      0.812820000000     0.105800000000     0.458440000000    -0.271654   
O        O      0.666720000000     0.059400000000     0.363240000000    -0.271654   
O        O      0.863410000000     0.951400000000     0.457020000000    -0.271654   
O        O      0.796270000000     0.866900000000     0.516540000000    -0.271654   
O        O      0.708320000000     0.054700000000     0.872040000000    -0.271654   
O        O      0.865390000000     0.064900000000     0.974580000000    -0.271654   
O        O      0.801240000000     0.099600000000     0.117480000000    -0.271654   
O        O      0.894830000000     0.994460000000     0.105060000000    -0.271654   
O        O      0.645620000000     0.605800000000     0.458440000000    -0.271654   
O        O      0.696520000000     0.559400000000     0.363240000000    -0.271654   
O        O      0.593610000000     0.451400000000     0.457020000000    -0.271654   
O        O      0.720270000000     0.366900000000     0.516540000000    -0.271654   
O        O      0.836280000000     0.445300000000     0.127960000000    -0.271654   
O        O      0.890810000000     0.435100000000     0.025420000000    -0.271654   
O        O      0.683760000000     0.400400000000     0.882520000000    -0.271654   
O        O      0.789770000000     0.505540000000     0.894940000000    -0.271654   
O        O      0.187180000000     0.894200000000     0.541560000000    -0.271654   
O        O      0.333280000000     0.940600000000     0.636760000000    -0.271654   
O        O      0.136590000000     0.048600000000     0.542980000000    -0.271654   
O        O      0.203730000000     0.133100000000     0.483460000000    -0.271654   


