data_DAXHUH_original

_audit_creation_method RASPA-1.0
_audit_creation_date 2022-1-29
_audit_author_name 'Felipe Lopes de Oliveira <felipe.lopes.oliveira@ibm.com>'

_cell_length_a    12.106
_cell_length_b    12.118
_cell_length_c    13.7207
_cell_angle_alpha 81.0372
_cell_angle_beta  63.8226
_cell_angle_gamma 69.32
_cell_volume      1690

_symmetry_cell_setting          triclinic
_symmetry_space_group_name_Hall 'P 1'
_symmetry_space_group_name_H-M  'P 1'
_symmetry_Int_Tables_number     1

_symmetry_equiv_pos_as_xyz 'x,y,z'

loop_
_atom_site_label
_atom_site_type_symbol
_atom_site_fract_x
_atom_site_fract_y
_atom_site_fract_z
_atom_site_charge
Fe       Fe     0.000000000000     0.000000000000     0.000000000000     0.682285   
Fe       Fe     0.104030000000     0.257050000000     0.000000000000     0.682285   
Fe       Fe     0.895970000000     0.742950000000     0.000000000000     0.682285   
H        H      0.337200000000     0.912600000000     0.572000000000     0.0577846  
H        H      0.512300000000     0.126000000000     0.604600000000     0.0577846  
H        H      0.090800000000     0.087400000000     0.572000000000     0.0577846  
H        H      0.883100000000     0.874000000000     0.604600000000     0.0577846  
H        H      0.662800000000     0.087400000000     0.428000000000     0.0577846  
H        H      0.487700000000     0.874000000000     0.395400000000     0.0577846  
H        H      0.909200000000     0.912600000000     0.428000000000     0.0577846  
H        H      0.116900000000     0.126000000000     0.395400000000     0.0577846  
H        H      0.529500000000     0.301800000000     0.000000000000     0.0577846  
H        H      0.662900000000     0.558300000000     0.000000000000     0.0577846  
H        H      0.470500000000     0.698200000000     0.000000000000     0.0577846  
H        H      0.337100000000     0.441700000000     0.000000000000     0.0577846  
C        C      0.404100000000     0.947700000000     0.543200000000     0.0275842  
C        C      0.409100000000     0.018300000000     0.608800000000     0.0275842  
C        C      0.508100000000     0.074100000000     0.562000000000     0.0275842  
C        C      0.317100000000     0.043300000000     0.722200000000     0.0275842  
C        C      0.052700000000     0.052300000000     0.543200000000     0.0275842  
C        C      0.982100000000     0.981700000000     0.608800000000     0.0275842  
C        C      0.929900000000     0.925900000000     0.562000000000     0.0275842  
C        C      0.960700000000     0.956700000000     0.722200000000     0.0275842  
C        C      0.595900000000     0.052300000000     0.456800000000     0.0275842  
C        C      0.590900000000     0.981700000000     0.391200000000     0.0275842  
C        C      0.491900000000     0.925900000000     0.438000000000     0.0275842  
C        C      0.682900000000     0.956700000000     0.277800000000     0.0275842  
C        C      0.947300000000     0.947700000000     0.456800000000     0.0275842  
C        C      0.017900000000     0.018300000000     0.391200000000     0.0275842  
C        C      0.070100000000     0.074100000000     0.438000000000     0.0275842  
C        C      0.039300000000     0.043300000000     0.277800000000     0.0275842  
C        C      0.518900000000     0.383300000000     0.000000000000     0.0275842  
C        C      0.614400000000     0.414600000000     0.000000000000     0.0275842  
C        C      0.597100000000     0.532900000000     0.000000000000     0.0275842  
C        C      0.736600000000     0.332400000000     0.000000000000     0.0275842  
C        C      0.481100000000     0.616700000000     0.000000000000     0.0275842  
C        C      0.385600000000     0.585400000000     0.000000000000     0.0275842  
C        C      0.402900000000     0.467100000000     0.000000000000     0.0275842  
C        C      0.263400000000     0.667600000000     0.000000000000     0.0275842  
C        C      0.031800000000     0.500000000000     0.936400000000     0.0275842  
C        C      0.968200000000     0.500000000000     0.063600000000     0.0275842  
N        N      0.238000000000     0.979900000000     0.780400000000    -0.0974163  
N        N      0.163620000000     0.035800000000     0.877160000000    -0.0974163  
N        N      0.201400000000     0.125100000000     0.875600000000    -0.0974163  
N        N      0.294600000000     0.135400000000     0.780000000000    -0.0974163  
N        N      0.981600000000     0.020100000000     0.780400000000    -0.0974163  
N        N      0.959220000000     0.964200000000     0.877160000000    -0.0974163  
N        N      0.923000000000     0.874900000000     0.875600000000    -0.0974163  
N        N      0.925400000000     0.864600000000     0.780000000000    -0.0974163  
N        N      0.762000000000     0.020100000000     0.219600000000    -0.0974163  
N        N      0.836380000000     0.964200000000     0.122840000000    -0.0974163  
N        N      0.798600000000     0.874900000000     0.124400000000    -0.0974163  
N        N      0.705400000000     0.864600000000     0.220000000000    -0.0974163  
N        N      0.018400000000     0.979900000000     0.219600000000    -0.0974163  
N        N      0.040780000000     0.035800000000     0.122840000000    -0.0974163  
N        N      0.077000000000     0.125100000000     0.124400000000    -0.0974163  
N        N      0.074600000000     0.135400000000     0.220000000000    -0.0974163  
N        N      0.769400000000     0.212000000000     0.000000000000    -0.0974163  
N        N      0.887600000000     0.175700000000     0.000000000000    -0.0974163  
N        N      0.921400000000     0.264800000000     0.000000000000    -0.0974163  
N        N      0.829600000000     0.364500000000     0.000000000000    -0.0974163  
N        N      0.230600000000     0.788000000000     0.000000000000    -0.0974163  
N        N      0.112400000000     0.824300000000     0.000000000000    -0.0974163  
N        N      0.078600000000     0.735200000000     0.000000000000    -0.0974163  
N        N      0.170400000000     0.635500000000     0.000000000000    -0.0974163  
O        O      0.106110000000     0.402800000000     0.889180000000    -0.279867   
O        O      0.004710000000     0.597200000000     0.889180000000    -0.279867   
O        O      0.893890000000     0.597200000000     0.110820000000    -0.279867   
O        O      0.995290000000     0.402800000000     0.110820000000    -0.279867   


