data_DAXHUH01_original

_audit_creation_method RASPA-1.0
_audit_creation_date 2022-1-28
_audit_author_name 'Felipe Lopes de Oliveira <felipe.lopes.oliveira@ibm.com>'

_cell_length_a    11.95
_cell_length_b    12.114
_cell_length_c    13.6683
_cell_angle_alpha 63.6955
_cell_angle_beta  81.1713
_cell_angle_gamma 69.7359
_cell_volume      1663.98

_symmetry_cell_setting          triclinic
_symmetry_space_group_name_Hall 'P 1'
_symmetry_space_group_name_H-M  'P 1'
_symmetry_Int_Tables_number     1

_symmetry_equiv_pos_as_xyz 'x,y,z'

loop_
_atom_site_label
_atom_site_type_symbol
_atom_site_fract_x
_atom_site_fract_y
_atom_site_fract_z
_atom_site_charge
Fe       Fe     0.000000000000     0.000000000000     0.000000000000     0.690481   
Fe       Fe     0.739680000000     0.894780000000     0.000000000000     0.690481   
Fe       Fe     0.260320000000     0.105220000000     0.000000000000     0.690481   
H        H      0.085500000000     0.087100000000     0.574800000000     0.0594783  
H        H      0.889100000000     0.867200000000     0.607000000000     0.0594783  
H        H      0.914500000000     0.338100000000     0.574800000000     0.0594783  
H        H      0.110900000000     0.525800000000     0.607000000000     0.0594783  
H        H      0.914500000000     0.912900000000     0.425200000000     0.0594783  
H        H      0.110900000000     0.132800000000     0.393000000000     0.0594783  
H        H      0.085500000000     0.661900000000     0.425200000000     0.0594783  
H        H      0.889100000000     0.474200000000     0.393000000000     0.0594783  
H        H      0.699600000000     0.467100000000     0.000000000000     0.0594783  
H        H      0.442900000000     0.339800000000     0.000000000000     0.0594783  
H        H      0.300400000000     0.532900000000     0.000000000000     0.0594783  
H        H      0.557100000000     0.660200000000     0.000000000000     0.0594783  
C        C      0.049600000000     0.052200000000     0.544800000000     0.0279592  
C        C      0.981600000000     0.977000000000     0.610000000000     0.0279592  
C        C      0.933300000000     0.922000000000     0.564000000000     0.0279592  
C        C      0.956600000000     0.960700000000     0.723000000000     0.0279592  
C        C      0.950400000000     0.403000000000     0.544800000000     0.0279592  
C        C      0.018400000000     0.413000000000     0.610000000000     0.0279592  
C        C      0.066700000000     0.514000000000     0.564000000000     0.0279592  
C        C      0.043400000000     0.316300000000     0.723000000000     0.0279592  
C        C      0.950400000000     0.947800000000     0.455200000000     0.0279592  
C        C      0.018400000000     0.023000000000     0.390000000000     0.0279592  
C        C      0.066700000000     0.078000000000     0.436000000000     0.0279592  
C        C      0.043400000000     0.039300000000     0.277000000000     0.0279592  
C        C      0.049600000000     0.597000000000     0.455200000000     0.0279592  
C        C      0.981600000000     0.587000000000     0.390000000000     0.0279592  
C        C      0.933300000000     0.486000000000     0.436000000000     0.0279592  
C        C      0.956600000000     0.683700000000     0.277000000000     0.0279592  
C        C      0.618700000000     0.477900000000     0.000000000000     0.0279592  
C        C      0.582800000000     0.383400000000     0.000000000000     0.0279592  
C        C      0.469500000000     0.403500000000     0.000000000000     0.0279592  
C        C      0.664100000000     0.263500000000     0.000000000000     0.0279592  
C        C      0.381300000000     0.522100000000     0.000000000000     0.0279592  
C        C      0.417200000000     0.616600000000     0.000000000000     0.0279592  
C        C      0.530500000000     0.596500000000     0.000000000000     0.0279592  
C        C      0.335900000000     0.736500000000     0.000000000000     0.0279592  
C        C      0.500000000000     0.031300000000     0.937400000000     0.0279592  
C        C      0.500000000000     0.968700000000     0.062600000000     0.0279592  
N        N      0.020600000000     0.980030000000     0.781940000000    -0.0972528  
N        N      0.965900000000     0.958760000000     0.875880000000    -0.0972528  
N        N      0.867600000000     0.930900000000     0.874200000000    -0.0972528  
N        N      0.861800000000     0.928280000000     0.779040000000    -0.0972528  
N        N      0.979400000000     0.238030000000     0.781940000000    -0.0972528  
N        N      0.034100000000     0.165360000000     0.875880000000    -0.0972528  
N        N      0.132400000000     0.194900000000     0.874200000000    -0.0972528  
N        N      0.138200000000     0.292680000000     0.779040000000    -0.0972528  
N        N      0.979400000000     0.019970000000     0.218060000000    -0.0972528  
N        N      0.034100000000     0.041240000000     0.124120000000    -0.0972528  
N        N      0.132400000000     0.069100000000     0.125800000000    -0.0972528  
N        N      0.138200000000     0.071720000000     0.220960000000    -0.0972528  
N        N      0.020600000000     0.761970000000     0.218060000000    -0.0972528  
N        N      0.965900000000     0.834640000000     0.124120000000    -0.0972528  
N        N      0.867600000000     0.805100000000     0.125800000000    -0.0972528  
N        N      0.861800000000     0.707320000000     0.220960000000    -0.0972528  
N        N      0.786500000000     0.231600000000     0.000000000000    -0.0972528  
N        N      0.822100000000     0.116800000000     0.000000000000    -0.0972528  
N        N      0.732800000000     0.079000000000     0.000000000000    -0.0972528  
N        N      0.631500000000     0.170400000000     0.000000000000    -0.0972528  
N        N      0.213500000000     0.768400000000     0.000000000000    -0.0972528  
N        N      0.177900000000     0.883200000000     0.000000000000    -0.0972528  
N        N      0.267200000000     0.921000000000     0.000000000000    -0.0972528  
N        N      0.368500000000     0.829600000000     0.000000000000    -0.0972528  
O        O      0.596200000000     0.005740000000     0.890920000000    -0.294514   
O        O      0.403800000000     0.103340000000     0.890920000000    -0.294514   
O        O      0.403800000000     0.994260000000     0.109080000000    -0.294514   
O        O      0.596200000000     0.896660000000     0.109080000000    -0.294514   


