data_DAXKOE_original

_audit_creation_method RASPA-1.0
_audit_creation_date 2022-1-30
_audit_author_name 'Felipe Lopes de Oliveira <felipe.lopes.oliveira@ibm.com>'

_cell_length_a    10.1149
_cell_length_b    10.1149
_cell_length_c    11.467
_cell_angle_alpha 98.9204
_cell_angle_beta  98.9204
_cell_angle_gamma 115.278
_cell_volume      1015.37

_symmetry_cell_setting          triclinic
_symmetry_space_group_name_Hall 'P 1'
_symmetry_space_group_name_H-M  'P 1'
_symmetry_Int_Tables_number     1

_symmetry_equiv_pos_as_xyz 'x,y,z'

loop_
_atom_site_label
_atom_site_type_symbol
_atom_site_fract_x
_atom_site_fract_y
_atom_site_fract_z
_atom_site_charge
In       In     0.363030000000     0.636970000000     0.250000000000     2.26698    
In       In     0.636970000000     0.363030000000     0.750000000000     2.26698    
H        H      0.418600000000     0.786200000000     0.568000000000     0.0177263  
H        H      0.583700000000     0.753900000000     0.057700000000     0.0177263  
H        H      0.213800000000     0.581400000000     0.932000000000     0.0177263  
H        H      0.246100000000     0.416300000000     0.442300000000     0.0177263  
H        H      0.581400000000     0.213800000000     0.432000000000     0.0177263  
H        H      0.416300000000     0.246100000000     0.942300000000     0.0177263  
H        H      0.786200000000     0.418600000000     0.068000000000     0.0177263  
H        H      0.753900000000     0.583700000000     0.557700000000     0.0177263  
C        C      0.451300000000     0.872500000000     0.538600000000     0.135379   
C        C      0.548900000000     0.650100000000     0.035100000000     0.135379   
C        C      0.606300000000     0.588900000000     0.950600000000     0.135379   
C        C      0.486500000000     0.986700000000     0.380400000000     0.135379   
C        C      0.466000000000     0.968200000000     0.243900000000     0.135379   
C        C      0.722500000000     0.684500000000     0.891000000000     0.135379   
C        C      0.127500000000     0.548700000000     0.961400000000     0.135379   
C        C      0.349900000000     0.451100000000     0.464900000000     0.135379   
C        C      0.411100000000     0.393700000000     0.549400000000     0.135379   
C        C      0.013300000000     0.513500000000     0.119600000000     0.135379   
C        C      0.031800000000     0.534000000000     0.256100000000     0.135379   
C        C      0.315500000000     0.277500000000     0.609000000000     0.135379   
C        C      0.548700000000     0.127500000000     0.461400000000     0.135379   
C        C      0.451100000000     0.349900000000     0.964900000000     0.135379   
C        C      0.393700000000     0.411100000000     0.049400000000     0.135379   
C        C      0.513500000000     0.013300000000     0.619600000000     0.135379   
C        C      0.534000000000     0.031800000000     0.756100000000     0.135379   
C        C      0.277500000000     0.315500000000     0.109000000000     0.135379   
C        C      0.872500000000     0.451300000000     0.038600000000     0.135379   
C        C      0.650100000000     0.548900000000     0.535100000000     0.135379   
C        C      0.588900000000     0.606300000000     0.450600000000     0.135379   
C        C      0.986700000000     0.486500000000     0.880400000000     0.135379   
C        C      0.968200000000     0.466000000000     0.743900000000     0.135379   
C        C      0.684500000000     0.722500000000     0.391000000000     0.135379   
N        N      0.437900000000     0.859300000000     0.419100000000    -0.242117   
N        N      0.443930000000     0.559270000000     0.083500000000    -0.242117   
N        N      0.140700000000     0.562100000000     0.080900000000    -0.242117   
N        N      0.440730000000     0.556070000000     0.416500000000    -0.242117   
N        N      0.562100000000     0.140700000000     0.580900000000    -0.242117   
N        N      0.556070000000     0.440730000000     0.916500000000    -0.242117   
N        N      0.859300000000     0.437900000000     0.919100000000    -0.242117   
N        N      0.559270000000     0.443930000000     0.583500000000    -0.242117   
O        O      0.408720000000     0.833480000000     0.178600000000    -0.374246   
O        O      0.501600000000     0.080600000000     0.204600000000    -0.374246   
O        O      0.749890000000     0.614110000000     0.805400000000    -0.374246   
O        O      0.783500000000     0.823300000000     0.931300000000    -0.374246   
O        O      0.166520000000     0.591280000000     0.321400000000    -0.374246   
O        O      0.919400000000     0.498400000000     0.295400000000    -0.374246   
O        O      0.385890000000     0.250110000000     0.694600000000    -0.374246   
O        O      0.176700000000     0.216500000000     0.568700000000    -0.374246   
O        O      0.591280000000     0.166520000000     0.821400000000    -0.374246   
O        O      0.498400000000     0.919400000000     0.795400000000    -0.374246   
O        O      0.250110000000     0.385890000000     0.194600000000    -0.374246   
O        O      0.216500000000     0.176700000000     0.068700000000    -0.374246   
O        O      0.833480000000     0.408720000000     0.678600000000    -0.374246   
O        O      0.080600000000     0.501600000000     0.704600000000    -0.374246   
O        O      0.614110000000     0.749890000000     0.305400000000    -0.374246   
O        O      0.823300000000     0.783500000000     0.431300000000    -0.374246   


