data_DAXNOG_original

_audit_creation_method RASPA-1.0
_audit_creation_date 2022-1-29
_audit_author_name 'Felipe Lopes de Oliveira <felipe.lopes.oliveira@ibm.com>'

_cell_length_a    7.989
_cell_length_b    8.9532
_cell_length_c    8.9532
_cell_angle_alpha 103.082
_cell_angle_beta  100.063
_cell_angle_gamma 100.063
_cell_volume      598.654

_symmetry_cell_setting          triclinic
_symmetry_space_group_name_Hall 'P 1'
_symmetry_space_group_name_H-M  'P 1'
_symmetry_Int_Tables_number     1

_symmetry_equiv_pos_as_xyz 'x,y,z'

loop_
_atom_site_label
_atom_site_type_symbol
_atom_site_fract_x
_atom_site_fract_y
_atom_site_fract_z
_atom_site_charge
Zn       Zn     0.578610000000     0.395210000000     0.395210000000     0.448404   
Zn       Zn     0.421390000000     0.604790000000     0.604790000000     0.448404   
H        H      0.730800000000     0.045600000000     0.528200000000     0.0617067  
H        H      0.048100000000     0.747300000000     0.463900000000     0.0617067  
H        H      0.269200000000     0.471800000000     0.954400000000     0.0617067  
H        H      0.951900000000     0.536100000000     0.252700000000     0.0617067  
H        H      0.269200000000     0.954400000000     0.471800000000     0.0617067  
H        H      0.951900000000     0.252700000000     0.536100000000     0.0617067  
H        H      0.730800000000     0.528200000000     0.045600000000     0.0617067  
H        H      0.048100000000     0.463900000000     0.747300000000     0.0617067  
C        C      0.867000000000     0.875500000000     0.496300000000     0.0594067  
C        C      0.841800000000     0.026500000000     0.516700000000     0.0594067  
C        C      0.027400000000     0.850500000000     0.478900000000     0.0594067  
C        C      0.723900000000     0.739600000000     0.492400000000     0.0594067  
C        C      0.133000000000     0.503700000000     0.124500000000     0.0594067  
C        C      0.158200000000     0.483300000000     0.973500000000     0.0594067  
C        C      0.972600000000     0.521100000000     0.149500000000     0.0594067  
C        C      0.276100000000     0.507600000000     0.260400000000     0.0594067  
C        C      0.133000000000     0.124500000000     0.503700000000     0.0594067  
C        C      0.158200000000     0.973500000000     0.483300000000     0.0594067  
C        C      0.972600000000     0.149500000000     0.521100000000     0.0594067  
C        C      0.276100000000     0.260400000000     0.507600000000     0.0594067  
C        C      0.867000000000     0.496300000000     0.875500000000     0.0594067  
C        C      0.841800000000     0.516700000000     0.026500000000     0.0594067  
C        C      0.027400000000     0.478900000000     0.850500000000     0.0594067  
C        C      0.723900000000     0.492400000000     0.739600000000     0.0594067  
O        O      0.729000000000     0.606400000000     0.412200000000    -0.292621   
O        O      0.390600000000     0.433800000000     0.231400000000    -0.292621   
O        O      0.271000000000     0.587800000000     0.393600000000    -0.292621   
O        O      0.609400000000     0.768600000000     0.566200000000    -0.292621   
O        O      0.271000000000     0.393600000000     0.587800000000    -0.292621   
O        O      0.609400000000     0.566200000000     0.768600000000    -0.292621   
O        O      0.729000000000     0.412200000000     0.606400000000    -0.292621   
O        O      0.390600000000     0.231400000000     0.433800000000    -0.292621   


