data_DEYVUA_original

_audit_creation_method RASPA-1.0
_audit_creation_date 2022-1-29
_audit_author_name 'Felipe Lopes de Oliveira <felipe.lopes.oliveira@ibm.com>'

_cell_length_a    13.4641
_cell_length_b    13.4641
_cell_length_c    23.3751
_cell_angle_alpha 90
_cell_angle_beta  90
_cell_angle_gamma 90
_cell_volume      4237.48

_symmetry_cell_setting          triclinic
_symmetry_space_group_name_Hall 'P 1'
_symmetry_space_group_name_H-M  'P 1'
_symmetry_Int_Tables_number     1

_symmetry_equiv_pos_as_xyz 'x,y,z'

loop_
_atom_site_label
_atom_site_type_symbol
_atom_site_fract_x
_atom_site_fract_y
_atom_site_fract_z
_atom_site_charge
Zn       Zn     0.142100000000     0.204290000000     0.941360000000     0.46929    
Zn       Zn     0.857900000000     0.795710000000     0.441360000000     0.46929    
Zn       Zn     0.295710000000     0.642100000000     0.191360000000     0.46929    
Zn       Zn     0.704290000000     0.357900000000     0.691360000000     0.46929    
Zn       Zn     0.357900000000     0.704290000000     0.308640000000     0.46929    
Zn       Zn     0.642100000000     0.295710000000     0.808640000000     0.46929    
Zn       Zn     0.204290000000     0.142100000000     0.058640000000     0.46929    
Zn       Zn     0.795710000000     0.857900000000     0.558640000000     0.46929    
H        H      0.013100000000     0.331900000000     0.719900000000     0.0518187  
H        H      0.224000000000     0.247400000000     0.830200000000     0.0518187  
H        H      0.947300000000     0.255800000000     0.880100000000     0.0518187  
H        H      0.327800000000     0.312400000000     0.777100000000     0.0518187  
H        H      0.410400000000     0.327900000000     0.614000000000     0.0518187  
H        H      0.249600000000     0.310400000000     0.585700000000     0.0518187  
H        H      0.124200000000     0.289500000000     0.652800000000     0.0518187  
H        H      0.986900000000     0.668100000000     0.219900000000     0.0518187  
H        H      0.776000000000     0.752600000000     0.330200000000     0.0518187  
H        H      0.052700000000     0.744200000000     0.380100000000     0.0518187  
H        H      0.672200000000     0.687600000000     0.277100000000     0.0518187  
H        H      0.589600000000     0.672100000000     0.114000000000     0.0518187  
H        H      0.750400000000     0.689600000000     0.085700000000     0.0518187  
H        H      0.875800000000     0.710500000000     0.152800000000     0.0518187  
H        H      0.168100000000     0.513100000000     0.969900000000     0.0518187  
H        H      0.252600000000     0.724000000000     0.080200000000     0.0518187  
H        H      0.244200000000     0.447300000000     0.130100000000     0.0518187  
H        H      0.187600000000     0.827800000000     0.027100000000     0.0518187  
H        H      0.172100000000     0.910400000000     0.864000000000     0.0518187  
H        H      0.189600000000     0.749600000000     0.835700000000     0.0518187  
H        H      0.210500000000     0.624200000000     0.902800000000     0.0518187  
H        H      0.831900000000     0.486900000000     0.469900000000     0.0518187  
H        H      0.747400000000     0.276000000000     0.580200000000     0.0518187  
H        H      0.755800000000     0.552700000000     0.630100000000     0.0518187  
H        H      0.812400000000     0.172200000000     0.527100000000     0.0518187  
H        H      0.827900000000     0.089600000000     0.364000000000     0.0518187  
H        H      0.810400000000     0.250400000000     0.335700000000     0.0518187  
H        H      0.789500000000     0.375800000000     0.402800000000     0.0518187  
H        H      0.486900000000     0.831900000000     0.530100000000     0.0518187  
H        H      0.276000000000     0.747400000000     0.419800000000     0.0518187  
H        H      0.552700000000     0.755800000000     0.369900000000     0.0518187  
H        H      0.172200000000     0.812400000000     0.472900000000     0.0518187  
H        H      0.089600000000     0.827900000000     0.636000000000     0.0518187  
H        H      0.250400000000     0.810400000000     0.664300000000     0.0518187  
H        H      0.375800000000     0.789500000000     0.597200000000     0.0518187  
H        H      0.513100000000     0.168100000000     0.030100000000     0.0518187  
H        H      0.724000000000     0.252600000000     0.919800000000     0.0518187  
H        H      0.447300000000     0.244200000000     0.869900000000     0.0518187  
H        H      0.827800000000     0.187600000000     0.972900000000     0.0518187  
H        H      0.910400000000     0.172100000000     0.136000000000     0.0518187  
H        H      0.749600000000     0.189600000000     0.164300000000     0.0518187  
H        H      0.624200000000     0.210500000000     0.097200000000     0.0518187  
H        H      0.331900000000     0.013100000000     0.280100000000     0.0518187  
H        H      0.247400000000     0.224000000000     0.169800000000     0.0518187  
H        H      0.255800000000     0.947300000000     0.119900000000     0.0518187  
H        H      0.312400000000     0.327800000000     0.222900000000     0.0518187  
H        H      0.327900000000     0.410400000000     0.386000000000     0.0518187  
H        H      0.310400000000     0.249600000000     0.414300000000     0.0518187  
H        H      0.289500000000     0.124200000000     0.347200000000     0.0518187  
H        H      0.668100000000     0.986900000000     0.780100000000     0.0518187  
H        H      0.752600000000     0.776000000000     0.669800000000     0.0518187  
H        H      0.744200000000     0.052700000000     0.619900000000     0.0518187  
H        H      0.687600000000     0.672200000000     0.722900000000     0.0518187  
H        H      0.672100000000     0.589600000000     0.886000000000     0.0518187  
H        H      0.689600000000     0.750400000000     0.914300000000     0.0518187  
H        H      0.710500000000     0.875800000000     0.847200000000     0.0518187  
C        C      0.854900000000     0.309000000000     0.785400000000     0.0367985  
C        C      0.963200000000     0.294700000000     0.798100000000     0.0367985  
C        C      0.033100000000     0.309600000000     0.755800000000     0.0367985  
C        C      0.133300000000     0.291700000000     0.766300000000     0.0367985  
C        C      0.157800000000     0.260800000000     0.821900000000     0.0367985  
C        C      0.994300000000     0.265200000000     0.851400000000     0.0367985  
C        C      0.212100000000     0.303700000000     0.722700000000     0.0367985  
C        C      0.311600000000     0.312300000000     0.738500000000     0.0367985  
C        C      0.387500000000     0.320800000000     0.698200000000     0.0367985  
C        C      0.361100000000     0.320700000000     0.641600000000     0.0367985  
C        C      0.264900000000     0.310300000000     0.624500000000     0.0367985  
C        C      0.189400000000     0.299500000000     0.664700000000     0.0367985  
C        C      0.491300000000     0.328100000000     0.717200000000     0.0367985  
C        C      0.145100000000     0.691000000000     0.285400000000     0.0367985  
C        C      0.036800000000     0.705300000000     0.298100000000     0.0367985  
C        C      0.966900000000     0.690400000000     0.255800000000     0.0367985  
C        C      0.866700000000     0.708300000000     0.266300000000     0.0367985  
C        C      0.842200000000     0.739200000000     0.321900000000     0.0367985  
C        C      0.005700000000     0.734800000000     0.351400000000     0.0367985  
C        C      0.787900000000     0.696300000000     0.222700000000     0.0367985  
C        C      0.688400000000     0.687700000000     0.238500000000     0.0367985  
C        C      0.612500000000     0.679200000000     0.198200000000     0.0367985  
C        C      0.638900000000     0.679300000000     0.141600000000     0.0367985  
C        C      0.735100000000     0.689700000000     0.124500000000     0.0367985  
C        C      0.810600000000     0.700500000000     0.164700000000     0.0367985  
C        C      0.508700000000     0.671900000000     0.217200000000     0.0367985  
C        C      0.191000000000     0.354900000000     0.035400000000     0.0367985  
C        C      0.205300000000     0.463200000000     0.048100000000     0.0367985  
C        C      0.190400000000     0.533100000000     0.005800000000     0.0367985  
C        C      0.208300000000     0.633300000000     0.016300000000     0.0367985  
C        C      0.239200000000     0.657800000000     0.071900000000     0.0367985  
C        C      0.234800000000     0.494300000000     0.101400000000     0.0367985  
C        C      0.196300000000     0.712100000000     0.972700000000     0.0367985  
C        C      0.187700000000     0.811600000000     0.988500000000     0.0367985  
C        C      0.179200000000     0.887500000000     0.948200000000     0.0367985  
C        C      0.179300000000     0.861100000000     0.891600000000     0.0367985  
C        C      0.189700000000     0.764900000000     0.874500000000     0.0367985  
C        C      0.200500000000     0.689400000000     0.914700000000     0.0367985  
C        C      0.171900000000     0.991300000000     0.967200000000     0.0367985  
C        C      0.809000000000     0.645100000000     0.535400000000     0.0367985  
C        C      0.794700000000     0.536800000000     0.548100000000     0.0367985  
C        C      0.809600000000     0.466900000000     0.505800000000     0.0367985  
C        C      0.791700000000     0.366700000000     0.516300000000     0.0367985  
C        C      0.760800000000     0.342200000000     0.571900000000     0.0367985  
C        C      0.765200000000     0.505700000000     0.601400000000     0.0367985  
C        C      0.803700000000     0.287900000000     0.472700000000     0.0367985  
C        C      0.812300000000     0.188400000000     0.488500000000     0.0367985  
C        C      0.820800000000     0.112500000000     0.448200000000     0.0367985  
C        C      0.820700000000     0.138900000000     0.391600000000     0.0367985  
C        C      0.810300000000     0.235100000000     0.374500000000     0.0367985  
C        C      0.799500000000     0.310600000000     0.414700000000     0.0367985  
C        C      0.828100000000     0.008700000000     0.467200000000     0.0367985  
C        C      0.645100000000     0.809000000000     0.464600000000     0.0367985  
C        C      0.536800000000     0.794700000000     0.451900000000     0.0367985  
C        C      0.466900000000     0.809600000000     0.494200000000     0.0367985  
C        C      0.366700000000     0.791700000000     0.483700000000     0.0367985  
C        C      0.342200000000     0.760800000000     0.428100000000     0.0367985  
C        C      0.505700000000     0.765200000000     0.398600000000     0.0367985  
C        C      0.287900000000     0.803700000000     0.527300000000     0.0367985  
C        C      0.188400000000     0.812300000000     0.511500000000     0.0367985  
C        C      0.112500000000     0.820800000000     0.551800000000     0.0367985  
C        C      0.138900000000     0.820700000000     0.608400000000     0.0367985  
C        C      0.235100000000     0.810300000000     0.625500000000     0.0367985  
C        C      0.310600000000     0.799500000000     0.585300000000     0.0367985  
C        C      0.008700000000     0.828100000000     0.532800000000     0.0367985  
C        C      0.354900000000     0.191000000000     0.964600000000     0.0367985  
C        C      0.463200000000     0.205300000000     0.951900000000     0.0367985  
C        C      0.533100000000     0.190400000000     0.994200000000     0.0367985  
C        C      0.633300000000     0.208300000000     0.983700000000     0.0367985  
C        C      0.657800000000     0.239200000000     0.928100000000     0.0367985  
C        C      0.494300000000     0.234800000000     0.898600000000     0.0367985  
C        C      0.712100000000     0.196300000000     0.027300000000     0.0367985  
C        C      0.811600000000     0.187700000000     0.011500000000     0.0367985  
C        C      0.887500000000     0.179200000000     0.051800000000     0.0367985  
C        C      0.861100000000     0.179300000000     0.108400000000     0.0367985  
C        C      0.764900000000     0.189700000000     0.125500000000     0.0367985  
C        C      0.689400000000     0.200500000000     0.085300000000     0.0367985  
C        C      0.991300000000     0.171900000000     0.032800000000     0.0367985  
C        C      0.309000000000     0.854900000000     0.214600000000     0.0367985  
C        C      0.294700000000     0.963200000000     0.201900000000     0.0367985  
C        C      0.309600000000     0.033100000000     0.244200000000     0.0367985  
C        C      0.291700000000     0.133300000000     0.233700000000     0.0367985  
C        C      0.260800000000     0.157800000000     0.178100000000     0.0367985  
C        C      0.265200000000     0.994300000000     0.148600000000     0.0367985  
C        C      0.303700000000     0.212100000000     0.277300000000     0.0367985  
C        C      0.312300000000     0.311600000000     0.261500000000     0.0367985  
C        C      0.320800000000     0.387500000000     0.301800000000     0.0367985  
C        C      0.320700000000     0.361100000000     0.358400000000     0.0367985  
C        C      0.310300000000     0.264900000000     0.375500000000     0.0367985  
C        C      0.299500000000     0.189400000000     0.335300000000     0.0367985  
C        C      0.328100000000     0.491300000000     0.282800000000     0.0367985  
C        C      0.691000000000     0.145100000000     0.714600000000     0.0367985  
C        C      0.705300000000     0.036800000000     0.701900000000     0.0367985  
C        C      0.690400000000     0.966900000000     0.744200000000     0.0367985  
C        C      0.708300000000     0.866700000000     0.733700000000     0.0367985  
C        C      0.739200000000     0.842200000000     0.678100000000     0.0367985  
C        C      0.734800000000     0.005700000000     0.648600000000     0.0367985  
C        C      0.696300000000     0.787900000000     0.777300000000     0.0367985  
C        C      0.687700000000     0.688400000000     0.761500000000     0.0367985  
C        C      0.679200000000     0.612500000000     0.801800000000     0.0367985  
C        C      0.679300000000     0.638900000000     0.858400000000     0.0367985  
C        C      0.689700000000     0.735100000000     0.875500000000     0.0367985  
C        C      0.700500000000     0.810600000000     0.835300000000     0.0367985  
C        C      0.671900000000     0.508700000000     0.782800000000     0.0367985  
N        N      0.090700000000     0.249700000000     0.863400000000    -0.146373   
N        N      0.909300000000     0.750300000000     0.363400000000    -0.146373   
N        N      0.250300000000     0.590700000000     0.113400000000    -0.146373   
N        N      0.749700000000     0.409300000000     0.613400000000    -0.146373   
N        N      0.409300000000     0.749700000000     0.386600000000    -0.146373   
N        N      0.590700000000     0.250300000000     0.886600000000    -0.146373   
N        N      0.249700000000     0.090700000000     0.136600000000    -0.146373   
N        N      0.750300000000     0.909300000000     0.636600000000    -0.146373   
O        O      0.793800000000     0.287800000000     0.824200000000    -0.291007   
O        O      0.834100000000     0.340300000000     0.736700000000    -0.291007   
O        O      0.509700000000     0.313200000000     0.769200000000    -0.291007   
O        O      0.555600000000     0.346500000000     0.680300000000    -0.291007   
O        O      0.206200000000     0.712200000000     0.324200000000    -0.291007   
O        O      0.165900000000     0.659700000000     0.236700000000    -0.291007   
O        O      0.490300000000     0.686800000000     0.269200000000    -0.291007   
O        O      0.444400000000     0.653500000000     0.180300000000    -0.291007   
O        O      0.212200000000     0.293800000000     0.074200000000    -0.291007   
O        O      0.159700000000     0.334100000000     0.986700000000    -0.291007   
O        O      0.186800000000     0.009700000000     0.019200000000    -0.291007   
O        O      0.153500000000     0.055600000000     0.930300000000    -0.291007   
O        O      0.787800000000     0.706200000000     0.574200000000    -0.291007   
O        O      0.840300000000     0.665900000000     0.486700000000    -0.291007   
O        O      0.813200000000     0.990300000000     0.519200000000    -0.291007   
O        O      0.846500000000     0.944400000000     0.430300000000    -0.291007   
O        O      0.706200000000     0.787800000000     0.425800000000    -0.291007   
O        O      0.665900000000     0.840300000000     0.513300000000    -0.291007   
O        O      0.990300000000     0.813200000000     0.480800000000    -0.291007   
O        O      0.944400000000     0.846500000000     0.569700000000    -0.291007   
O        O      0.293800000000     0.212200000000     0.925800000000    -0.291007   
O        O      0.334100000000     0.159700000000     0.013300000000    -0.291007   
O        O      0.009700000000     0.186800000000     0.980800000000    -0.291007   
O        O      0.055600000000     0.153500000000     0.069700000000    -0.291007   
O        O      0.287800000000     0.793800000000     0.175800000000    -0.291007   
O        O      0.340300000000     0.834100000000     0.263300000000    -0.291007   
O        O      0.313200000000     0.509700000000     0.230800000000    -0.291007   
O        O      0.346500000000     0.555600000000     0.319700000000    -0.291007   
O        O      0.712200000000     0.206200000000     0.675800000000    -0.291007   
O        O      0.659700000000     0.165900000000     0.763300000000    -0.291007   
O        O      0.686800000000     0.490300000000     0.730800000000    -0.291007   
O        O      0.653500000000     0.444400000000     0.819700000000    -0.291007   


