data_DIDDOK_original

_audit_creation_method RASPA-1.0
_audit_creation_date 2022-1-30
_audit_author_name 'Felipe Lopes de Oliveira <felipe.lopes.oliveira@ibm.com>'

_cell_length_a    16.2493
_cell_length_b    16.2493
_cell_length_c    22.99
_cell_angle_alpha 73.1216
_cell_angle_beta  73.1216
_cell_angle_gamma 66.2946
_cell_volume      5213.21

_symmetry_cell_setting          triclinic
_symmetry_space_group_name_Hall 'P 1'
_symmetry_space_group_name_H-M  'P 1'
_symmetry_Int_Tables_number     1

_symmetry_equiv_pos_as_xyz 'x,y,z'

loop_
_atom_site_label
_atom_site_type_symbol
_atom_site_fract_x
_atom_site_fract_y
_atom_site_fract_z
_atom_site_charge
Zn       Zn     0.993810000000     0.596570000000     0.487280000000     0.479431   
Zn       Zn     0.403430000000     0.006190000000     0.012720000000     0.479431   
Zn       Zn     0.006190000000     0.403430000000     0.512720000000     0.479431   
Zn       Zn     0.596570000000     0.993810000000     0.987280000000     0.479431   
H        H      0.223800000000     0.540800000000     0.569300000000     0.0613138  
H        H      0.338900000000     0.504300000000     0.620800000000     0.0613138  
H        H      0.370900000000     0.235500000000     0.648600000000     0.0613138  
H        H      0.247600000000     0.276600000000     0.598500000000     0.0613138  
H        H      0.586000000000     0.253600000000     0.700800000000     0.0613138  
H        H      0.608500000000     0.158500000000     0.799300000000     0.0613138  
H        H      0.338900000000     0.200300000000     0.848400000000     0.0613138  
H        H      0.317400000000     0.301200000000     0.752800000000     0.0613138  
H        H      0.080100000000     0.731900000000     0.408000000000     0.0613138  
H        H      0.100300000000     0.860500000000     0.407700000000     0.0613138  
H        H      0.908100000000     0.884700000000     0.561300000000     0.0613138  
H        H      0.888400000000     0.753800000000     0.554400000000     0.0613138  
H        H      0.036700000000     0.011100000000     0.441200000000     0.0613138  
H        H      0.459200000000     0.776200000000     0.930700000000     0.0613138  
H        H      0.495700000000     0.661100000000     0.879200000000     0.0613138  
H        H      0.764500000000     0.629100000000     0.851400000000     0.0613138  
H        H      0.723400000000     0.752400000000     0.901500000000     0.0613138  
H        H      0.746400000000     0.414000000000     0.799200000000     0.0613138  
H        H      0.841500000000     0.391500000000     0.700700000000     0.0613138  
H        H      0.799700000000     0.661100000000     0.651600000000     0.0613138  
H        H      0.698800000000     0.682600000000     0.747200000000     0.0613138  
H        H      0.268100000000     0.919900000000     0.092000000000     0.0613138  
H        H      0.139500000000     0.899700000000     0.092300000000     0.0613138  
H        H      0.115300000000     0.091900000000     0.938700000000     0.0613138  
H        H      0.246200000000     0.111600000000     0.945600000000     0.0613138  
H        H      0.988900000000     0.963300000000     0.058800000000     0.0613138  
H        H      0.776200000000     0.459200000000     0.430700000000     0.0613138  
H        H      0.661100000000     0.495700000000     0.379200000000     0.0613138  
H        H      0.629100000000     0.764500000000     0.351400000000     0.0613138  
H        H      0.752400000000     0.723400000000     0.401500000000     0.0613138  
H        H      0.414000000000     0.746400000000     0.299200000000     0.0613138  
H        H      0.391500000000     0.841500000000     0.200700000000     0.0613138  
H        H      0.661100000000     0.799700000000     0.151600000000     0.0613138  
H        H      0.682600000000     0.698800000000     0.247200000000     0.0613138  
H        H      0.919900000000     0.268100000000     0.592000000000     0.0613138  
H        H      0.899700000000     0.139500000000     0.592300000000     0.0613138  
H        H      0.091900000000     0.115300000000     0.438700000000     0.0613138  
H        H      0.111600000000     0.246200000000     0.445600000000     0.0613138  
H        H      0.963300000000     0.988900000000     0.558800000000     0.0613138  
H        H      0.540800000000     0.223800000000     0.069300000000     0.0613138  
H        H      0.504300000000     0.338900000000     0.120800000000     0.0613138  
H        H      0.235500000000     0.370900000000     0.148600000000     0.0613138  
H        H      0.276600000000     0.247600000000     0.098500000000     0.0613138  
H        H      0.253600000000     0.586000000000     0.200800000000     0.0613138  
H        H      0.158500000000     0.608500000000     0.299300000000     0.0613138  
H        H      0.200300000000     0.338900000000     0.348400000000     0.0613138  
H        H      0.301200000000     0.317400000000     0.252800000000     0.0613138  
H        H      0.731900000000     0.080100000000     0.908000000000     0.0613138  
H        H      0.860500000000     0.100300000000     0.907700000000     0.0613138  
H        H      0.884700000000     0.908100000000     0.061300000000     0.0613138  
H        H      0.753800000000     0.888400000000     0.054400000000     0.0613138  
H        H      0.011100000000     0.036700000000     0.941200000000     0.0613138  
C        C      0.142900000000     0.440300000000     0.549700000000     0.0210124  
C        C      0.222600000000     0.412200000000     0.578300000000     0.0210124  
C        C      0.253500000000     0.478100000000     0.586000000000     0.0210124  
C        C      0.322500000000     0.457300000000     0.615600000000     0.0210124  
C        C      0.368200000000     0.366800000000     0.637600000000     0.0210124  
C        C      0.340300000000     0.298100000000     0.632200000000     0.0210124  
C        C      0.266500000000     0.322700000000     0.602100000000     0.0210124  
C        C      0.450300000000     0.284100000000     0.718400000000     0.0210124  
C        C      0.535100000000     0.243500000000     0.731100000000     0.0210124  
C        C      0.549100000000     0.185900000000     0.789600000000     0.0210124  
C        C      0.475800000000     0.170600000000     0.831300000000     0.0210124  
C        C      0.389800000000     0.211600000000     0.818700000000     0.0210124  
C        C      0.377300000000     0.270500000000     0.761500000000     0.0210124  
C        C      0.489500000000     0.104700000000     0.893100000000     0.0210124  
C        C      0.045700000000     0.761900000000     0.441900000000     0.0210124  
C        C      0.056300000000     0.840100000000     0.439600000000     0.0210124  
C        C      0.003300000000     0.889900000000     0.483600000000     0.0210124  
C        C      0.944400000000     0.854000000000     0.528100000000     0.0210124  
C        C      0.936000000000     0.773000000000     0.526100000000     0.0210124  
C        C      0.010900000000     0.982100000000     0.480400000000     0.0210124  
C        C      0.559700000000     0.857100000000     0.950300000000     0.0210124  
C        C      0.587800000000     0.777400000000     0.921700000000     0.0210124  
C        C      0.521900000000     0.746500000000     0.914000000000     0.0210124  
C        C      0.542700000000     0.677500000000     0.884400000000     0.0210124  
C        C      0.633200000000     0.631800000000     0.862400000000     0.0210124  
C        C      0.701900000000     0.659700000000     0.867800000000     0.0210124  
C        C      0.677300000000     0.733500000000     0.897900000000     0.0210124  
C        C      0.715900000000     0.549700000000     0.781600000000     0.0210124  
C        C      0.756500000000     0.464900000000     0.768900000000     0.0210124  
C        C      0.814100000000     0.450900000000     0.710400000000     0.0210124  
C        C      0.829400000000     0.524200000000     0.668700000000     0.0210124  
C        C      0.788400000000     0.610200000000     0.681300000000     0.0210124  
C        C      0.729500000000     0.622700000000     0.738500000000     0.0210124  
C        C      0.895300000000     0.510500000000     0.606900000000     0.0210124  
C        C      0.238100000000     0.954300000000     0.058100000000     0.0210124  
C        C      0.159900000000     0.943700000000     0.060400000000     0.0210124  
C        C      0.110100000000     0.996700000000     0.016400000000     0.0210124  
C        C      0.146000000000     0.055600000000     0.971900000000     0.0210124  
C        C      0.227000000000     0.064000000000     0.973900000000     0.0210124  
C        C      0.017900000000     0.989100000000     0.019600000000     0.0210124  
C        C      0.857100000000     0.559700000000     0.450300000000     0.0210124  
C        C      0.777400000000     0.587800000000     0.421700000000     0.0210124  
C        C      0.746500000000     0.521900000000     0.414000000000     0.0210124  
C        C      0.677500000000     0.542700000000     0.384400000000     0.0210124  
C        C      0.631800000000     0.633200000000     0.362400000000     0.0210124  
C        C      0.659700000000     0.701900000000     0.367800000000     0.0210124  
C        C      0.733500000000     0.677300000000     0.397900000000     0.0210124  
C        C      0.549700000000     0.715900000000     0.281600000000     0.0210124  
C        C      0.464900000000     0.756500000000     0.268900000000     0.0210124  
C        C      0.450900000000     0.814100000000     0.210400000000     0.0210124  
C        C      0.524200000000     0.829400000000     0.168700000000     0.0210124  
C        C      0.610200000000     0.788400000000     0.181300000000     0.0210124  
C        C      0.622700000000     0.729500000000     0.238500000000     0.0210124  
C        C      0.510500000000     0.895300000000     0.106900000000     0.0210124  
C        C      0.954300000000     0.238100000000     0.558100000000     0.0210124  
C        C      0.943700000000     0.159900000000     0.560400000000     0.0210124  
C        C      0.996700000000     0.110100000000     0.516400000000     0.0210124  
C        C      0.055600000000     0.146000000000     0.471900000000     0.0210124  
C        C      0.064000000000     0.227000000000     0.473900000000     0.0210124  
C        C      0.989100000000     0.017900000000     0.519600000000     0.0210124  
C        C      0.440300000000     0.142900000000     0.049700000000     0.0210124  
C        C      0.412200000000     0.222600000000     0.078300000000     0.0210124  
C        C      0.478100000000     0.253500000000     0.086000000000     0.0210124  
C        C      0.457300000000     0.322500000000     0.115600000000     0.0210124  
C        C      0.366800000000     0.368200000000     0.137600000000     0.0210124  
C        C      0.298100000000     0.340300000000     0.132200000000     0.0210124  
C        C      0.322700000000     0.266500000000     0.102100000000     0.0210124  
C        C      0.284100000000     0.450300000000     0.218400000000     0.0210124  
C        C      0.243500000000     0.535100000000     0.231100000000     0.0210124  
C        C      0.185900000000     0.549100000000     0.289600000000     0.0210124  
C        C      0.170600000000     0.475800000000     0.331300000000     0.0210124  
C        C      0.211600000000     0.389800000000     0.318700000000     0.0210124  
C        C      0.270500000000     0.377300000000     0.261500000000     0.0210124  
C        C      0.104700000000     0.489500000000     0.393100000000     0.0210124  
C        C      0.761900000000     0.045700000000     0.941900000000     0.0210124  
C        C      0.840100000000     0.056300000000     0.939600000000     0.0210124  
C        C      0.889900000000     0.003300000000     0.983600000000     0.0210124  
C        C      0.854000000000     0.944400000000     0.028100000000     0.0210124  
C        C      0.773000000000     0.936000000000     0.026100000000     0.0210124  
C        C      0.982100000000     0.010900000000     0.980400000000     0.0210124  
N        N      0.994100000000     0.721700000000     0.484700000000    -0.173879   
N        N      0.278300000000     0.005900000000     0.015300000000    -0.173879   
N        N      0.005900000000     0.278300000000     0.515300000000    -0.173879   
N        N      0.721700000000     0.994100000000     0.984700000000    -0.173879   
O        O      0.105100000000     0.523300000000     0.528700000000    -0.304576   
O        O      0.116200000000     0.377800000000     0.548900000000    -0.304576   
O        O      0.442500000000     0.345300000000     0.662000000000    -0.304576   
O        O      0.568200000000     0.075200000000     0.906200000000    -0.304576   
O        O      0.421400000000     0.086800000000     0.927600000000    -0.304576   
O        O      0.476700000000     0.894900000000     0.971300000000    -0.304576   
O        O      0.622200000000     0.883800000000     0.951100000000    -0.304576   
O        O      0.654700000000     0.557500000000     0.838000000000    -0.304576   
O        O      0.924800000000     0.431800000000     0.593800000000    -0.304576   
O        O      0.913200000000     0.578600000000     0.572400000000    -0.304576   
O        O      0.894900000000     0.476700000000     0.471300000000    -0.304576   
O        O      0.883800000000     0.622200000000     0.451100000000    -0.304576   
O        O      0.557500000000     0.654700000000     0.338000000000    -0.304576   
O        O      0.431800000000     0.924800000000     0.093800000000    -0.304576   
O        O      0.578600000000     0.913200000000     0.072400000000    -0.304576   
O        O      0.523300000000     0.105100000000     0.028700000000    -0.304576   
O        O      0.377800000000     0.116200000000     0.048900000000    -0.304576   
O        O      0.345300000000     0.442500000000     0.162000000000    -0.304576   
O        O      0.075200000000     0.568200000000     0.406200000000    -0.304576   
O        O      0.086800000000     0.421400000000     0.427600000000    -0.304576   


