data_DORDUK_original

_audit_creation_method RASPA-1.0
_audit_creation_date 2022-1-30
_audit_author_name 'Felipe Lopes de Oliveira <felipe.lopes.oliveira@ibm.com>'

_cell_length_a    12.7624
_cell_length_b    12.7624
_cell_length_c    17.6291
_cell_angle_alpha 90
_cell_angle_beta  90
_cell_angle_gamma 120
_cell_volume      2486.71

_symmetry_cell_setting          triclinic
_symmetry_space_group_name_Hall 'P 1'
_symmetry_space_group_name_H-M  'P 1'
_symmetry_Int_Tables_number     1

_symmetry_equiv_pos_as_xyz 'x,y,z'

loop_
_atom_site_label
_atom_site_type_symbol
_atom_site_fract_x
_atom_site_fract_y
_atom_site_fract_z
_atom_site_charge
In       In     0.000000000000     0.372040000000     0.166700000000     2.30883    
In       In     0.627960000000     0.627960000000     0.500033000000     2.30883    
In       In     0.372040000000     0.000000000000     0.833367000000     2.30883    
H        H      0.586200000000     0.563600000000     0.242700000000     0.161677   
H        H      0.436400000000     0.022600000000     0.576033000000     0.161677   
H        H      0.977400000000     0.413800000000     0.909367000000     0.161677   
H        H      0.563600000000     0.586200000000     0.757300000000     0.161677   
H        H      0.022600000000     0.436400000000     0.423967000000     0.161677   
H        H      0.413800000000     0.977400000000     0.090633000000     0.161677   
H        H      0.532700000000     0.370900000000     0.244800000000     0.161677   
H        H      0.629100000000     0.161800000000     0.578133000000     0.161677   
H        H      0.838200000000     0.467300000000     0.911467000000     0.161677   
H        H      0.370900000000     0.532700000000     0.755200000000     0.161677   
H        H      0.161800000000     0.629100000000     0.421867000000     0.161677   
H        H      0.467300000000     0.838200000000     0.088533000000     0.161677   
H        H      0.442300000000     0.341200000000     0.313000000000     0.161677   
H        H      0.658800000000     0.101100000000     0.646333000000     0.161677   
H        H      0.898900000000     0.557700000000     0.979667000000     0.161677   
H        H      0.341200000000     0.442300000000     0.687000000000     0.161677   
H        H      0.101100000000     0.658800000000     0.353667000000     0.161677   
H        H      0.557700000000     0.898900000000     0.020333000000     0.161677   
H        H      0.291600000000     0.281700000000     0.234200000000     0.161677   
H        H      0.718300000000     0.009900000000     0.567533000000     0.161677   
H        H      0.990100000000     0.708400000000     0.900867000000     0.161677   
H        H      0.281700000000     0.291600000000     0.765800000000     0.161677   
H        H      0.009900000000     0.718300000000     0.432467000000     0.161677   
H        H      0.708400000000     0.990100000000     0.099133000000     0.161677   
H        H      0.380900000000     0.305200000000     0.166300000000     0.161677   
H        H      0.694800000000     0.075700000000     0.499633000000     0.161677   
H        H      0.924300000000     0.619100000000     0.832967000000     0.161677   
H        H      0.305200000000     0.380900000000     0.833700000000     0.161677   
H        H      0.075700000000     0.694800000000     0.500367000000     0.161677   
H        H      0.619100000000     0.924300000000     0.167033000000     0.161677   
H        H      0.512800000000     0.534200000000     0.117500000000     0.161677   
H        H      0.465800000000     0.978600000000     0.450833000000     0.161677   
H        H      0.021400000000     0.487200000000     0.784167000000     0.161677   
H        H      0.534200000000     0.512800000000     0.882500000000     0.161677   
H        H      0.978600000000     0.465800000000     0.549167000000     0.161677   
H        H      0.487200000000     0.021400000000     0.215833000000     0.161677   
H        H      0.423600000000     0.581600000000     0.098900000000     0.161677   
H        H      0.418400000000     0.842000000000     0.432233000000     0.161677   
H        H      0.158000000000     0.576400000000     0.765567000000     0.161677   
H        H      0.581600000000     0.423600000000     0.901100000000     0.161677   
H        H      0.842000000000     0.418400000000     0.567767000000     0.161677   
H        H      0.576400000000     0.158000000000     0.234433000000     0.161677   
H        H      0.395100000000     0.453700000000     0.070400000000     0.161677   
H        H      0.546300000000     0.941400000000     0.403733000000     0.161677   
H        H      0.058600000000     0.604900000000     0.737067000000     0.161677   
H        H      0.453700000000     0.395100000000     0.929600000000     0.161677   
H        H      0.941400000000     0.546300000000     0.596267000000     0.161677   
H        H      0.604900000000     0.058600000000     0.262933000000     0.161677   
H        H      0.288500000000     0.425400000000     0.333400000000     0.161677   
H        H      0.574600000000     0.863100000000     0.666733000000     0.161677   
H        H      0.136900000000     0.711500000000     0.000067000000     0.161677   
H        H      0.425400000000     0.288500000000     0.666600000000     0.161677   
H        H      0.863100000000     0.574600000000     0.333267000000     0.161677   
H        H      0.711500000000     0.136900000000     0.999933000000     0.161677   
H        H      0.256500000000     0.520100000000     0.300500000000     0.161677   
H        H      0.479900000000     0.736400000000     0.633833000000     0.161677   
H        H      0.263600000000     0.743500000000     0.967167000000     0.161677   
H        H      0.520100000000     0.256500000000     0.699500000000     0.161677   
H        H      0.736400000000     0.479900000000     0.366167000000     0.161677   
H        H      0.743500000000     0.263600000000     0.032833000000     0.161677   
H        H      0.359800000000     0.560200000000     0.360800000000     0.161677   
H        H      0.439800000000     0.799600000000     0.694133000000     0.161677   
H        H      0.200400000000     0.640200000000     0.027467000000     0.161677   
H        H      0.560200000000     0.359800000000     0.639200000000     0.161677   
H        H      0.799600000000     0.439800000000     0.305867000000     0.161677   
H        H      0.640200000000     0.200400000000     0.972533000000     0.161677   
H        H      0.518900000000     0.700900000000     0.195100000000     0.161677   
H        H      0.299100000000     0.818000000000     0.528433000000     0.161677   
H        H      0.182000000000     0.481100000000     0.861767000000     0.161677   
H        H      0.700900000000     0.518900000000     0.804900000000     0.161677   
H        H      0.818000000000     0.299100000000     0.471567000000     0.161677   
H        H      0.481100000000     0.182000000000     0.138233000000     0.161677   
H        H      0.492200000000     0.723700000000     0.278400000000     0.161677   
H        H      0.276300000000     0.768500000000     0.611733000000     0.161677   
H        H      0.231500000000     0.507800000000     0.945067000000     0.161677   
H        H      0.723700000000     0.492200000000     0.721600000000     0.161677   
H        H      0.768500000000     0.276300000000     0.388267000000     0.161677   
H        H      0.507800000000     0.231500000000     0.054933000000     0.161677   
H        H      0.391300000000     0.681900000000     0.216200000000     0.161677   
H        H      0.318100000000     0.709400000000     0.549533000000     0.161677   
H        H      0.290600000000     0.608700000000     0.882867000000     0.161677   
H        H      0.681900000000     0.391300000000     0.783800000000     0.161677   
H        H      0.709400000000     0.318100000000     0.450467000000     0.161677   
H        H      0.608700000000     0.290600000000     0.117133000000     0.161677   
H        H      0.088300000000     0.145000000000     0.335500000000     0.161677   
H        H      0.855000000000     0.943300000000     0.668833000000     0.161677   
H        H      0.056700000000     0.911700000000     0.002167000000     0.161677   
H        H      0.145000000000     0.088300000000     0.664500000000     0.161677   
H        H      0.943300000000     0.855000000000     0.331167000000     0.161677   
H        H      0.911700000000     0.056700000000     0.997833000000     0.161677   
H        H      0.015400000000     0.136100000000     0.261800000000     0.161677   
H        H      0.863900000000     0.879300000000     0.595133000000     0.161677   
H        H      0.120700000000     0.984600000000     0.928467000000     0.161677   
H        H      0.136100000000     0.015400000000     0.738200000000     0.161677   
H        H      0.879300000000     0.863900000000     0.404867000000     0.161677   
H        H      0.984600000000     0.120700000000     0.071533000000     0.161677   
H        H      0.072200000000     0.052800000000     0.271600000000     0.161677   
H        H      0.947200000000     0.019400000000     0.604933000000     0.161677   
H        H      0.980600000000     0.927800000000     0.938267000000     0.161677   
H        H      0.052800000000     0.072200000000     0.728400000000     0.161677   
H        H      0.019400000000     0.947200000000     0.395067000000     0.161677   
H        H      0.927800000000     0.980600000000     0.061733000000     0.161677   
H        H      0.755700000000     0.875700000000     0.299700000000     0.161677   
H        H      0.124300000000     0.880000000000     0.633033000000     0.161677   
H        H      0.120000000000     0.244300000000     0.966367000000     0.161677   
H        H      0.875700000000     0.755700000000     0.700300000000     0.161677   
H        H      0.880000000000     0.124300000000     0.366967000000     0.161677   
H        H      0.244300000000     0.120000000000     0.033633000000     0.161677   
H        H      0.854500000000     0.900300000000     0.238400000000     0.161677   
H        H      0.099700000000     0.954200000000     0.571733000000     0.161677   
H        H      0.045800000000     0.145500000000     0.905067000000     0.161677   
H        H      0.900300000000     0.854500000000     0.761600000000     0.161677   
H        H      0.954200000000     0.099700000000     0.428267000000     0.161677   
H        H      0.145500000000     0.045800000000     0.094933000000     0.161677   
H        H      0.811300000000     0.994400000000     0.251100000000     0.161677   
H        H      0.005600000000     0.816900000000     0.584433000000     0.161677   
H        H      0.183100000000     0.188700000000     0.917767000000     0.161677   
H        H      0.994400000000     0.811300000000     0.748900000000     0.161677   
H        H      0.816900000000     0.005600000000     0.415567000000     0.161677   
H        H      0.188700000000     0.183100000000     0.082233000000     0.161677   
C        C      0.357500000000     0.452400000000     0.187000000000    -0.193675   
C        C      0.547600000000     0.905100000000     0.520333000000    -0.193675   
C        C      0.094900000000     0.642500000000     0.853667000000    -0.193675   
C        C      0.452400000000     0.357500000000     0.813000000000    -0.193675   
C        C      0.905100000000     0.547600000000     0.479667000000    -0.193675   
C        C      0.642500000000     0.094900000000     0.146333000000    -0.193675   
C        C      0.413500000000     0.538300000000     0.254300000000    -0.193675   
C        C      0.461700000000     0.875200000000     0.587633000000    -0.193675   
C        C      0.124800000000     0.586500000000     0.920967000000    -0.193675   
C        C      0.538300000000     0.413500000000     0.745700000000    -0.193675   
C        C      0.875200000000     0.461700000000     0.412367000000    -0.193675   
C        C      0.586500000000     0.124800000000     0.079033000000    -0.193675   
C        C      0.518600000000     0.518400000000     0.277700000000    -0.193675   
C        C      0.481600000000     0.000200000000     0.611033000000    -0.193675   
C        C      0.999800000000     0.481400000000     0.944367000000    -0.193675   
C        C      0.518400000000     0.518600000000     0.722300000000    -0.193675   
C        C      0.000200000000     0.481600000000     0.388967000000    -0.193675   
C        C      0.481400000000     0.999800000000     0.055633000000    -0.193675   
C        C      0.470000000000     0.384600000000     0.265400000000    -0.193675   
C        C      0.615400000000     0.085400000000     0.598733000000    -0.193675   
C        C      0.914600000000     0.530000000000     0.932067000000    -0.193675   
C        C      0.384600000000     0.470000000000     0.734600000000    -0.193675   
C        C      0.085400000000     0.615400000000     0.401267000000    -0.193675   
C        C      0.530000000000     0.914600000000     0.067933000000    -0.193675   
C        C      0.366400000000     0.341600000000     0.210400000000    -0.193675   
C        C      0.658400000000     0.024800000000     0.543733000000    -0.193675   
C        C      0.975200000000     0.633600000000     0.877067000000    -0.193675   
C        C      0.341600000000     0.366400000000     0.789600000000    -0.193675   
C        C      0.024800000000     0.658400000000     0.456267000000    -0.193675   
C        C      0.633600000000     0.975200000000     0.122933000000    -0.193675   
C        C      0.429300000000     0.511300000000     0.110900000000    -0.193675   
C        C      0.488700000000     0.918000000000     0.444233000000    -0.193675   
C        C      0.082000000000     0.570700000000     0.777567000000    -0.193675   
C        C      0.511300000000     0.429300000000     0.889100000000    -0.193675   
C        C      0.918000000000     0.488700000000     0.555767000000    -0.193675   
C        C      0.570700000000     0.082000000000     0.222433000000    -0.193675   
C        C      0.320900000000     0.508200000000     0.318200000000    -0.193675   
C        C      0.491800000000     0.812700000000     0.651533000000    -0.193675   
C        C      0.187300000000     0.679100000000     0.984867000000    -0.193675   
C        C      0.508200000000     0.320900000000     0.681800000000    -0.193675   
C        C      0.812700000000     0.491800000000     0.348467000000    -0.193675   
C        C      0.679100000000     0.187300000000     0.015133000000    -0.193675   
C        C      0.458400000000     0.674500000000     0.234000000000    -0.193675   
C        C      0.325500000000     0.783900000000     0.567333000000    -0.193675   
C        C      0.216100000000     0.541600000000     0.900667000000    -0.193675   
C        C      0.674500000000     0.458400000000     0.766000000000    -0.193675   
C        C      0.783900000000     0.325500000000     0.432667000000    -0.193675   
C        C      0.541600000000     0.216100000000     0.099333000000    -0.193675   
C        C      0.225900000000     0.419900000000     0.172600000000    -0.193675   
C        C      0.580100000000     0.806000000000     0.505933000000    -0.193675   
C        C      0.194000000000     0.774100000000     0.839267000000    -0.193675   
C        C      0.419900000000     0.225900000000     0.827400000000    -0.193675   
C        C      0.806000000000     0.580100000000     0.494067000000    -0.193675   
C        C      0.774100000000     0.194000000000     0.160733000000    -0.193675   
C        C      0.563100000000     0.561600000000     0.358600000000    -0.193675   
C        C      0.438400000000     0.001500000000     0.691933000000    -0.193675   
C        C      0.998500000000     0.436900000000     0.025267000000    -0.193675   
C        C      0.561600000000     0.563100000000     0.641400000000    -0.193675   
C        C      0.001500000000     0.438400000000     0.308067000000    -0.193675   
C        C      0.436900000000     0.998500000000     0.974733000000    -0.193675   
C        C      0.034300000000     0.091100000000     0.297500000000    -0.193675   
C        C      0.908900000000     0.943200000000     0.630833000000    -0.193675   
C        C      0.056800000000     0.965700000000     0.964167000000    -0.193675   
C        C      0.091100000000     0.034300000000     0.702500000000    -0.193675   
C        C      0.943200000000     0.908900000000     0.369167000000    -0.193675   
C        C      0.965700000000     0.056800000000     0.035833000000    -0.193675   
C        C      0.828000000000     0.937000000000     0.275500000000    -0.193675   
C        C      0.063000000000     0.891000000000     0.608833000000    -0.193675   
C        C      0.109000000000     0.172000000000     0.942167000000    -0.193675   
C        C      0.937000000000     0.828000000000     0.724500000000    -0.193675   
C        C      0.891000000000     0.063000000000     0.391167000000    -0.193675   
C        C      0.172000000000     0.109000000000     0.057833000000    -0.193675   
N        N      0.924200000000     0.000000000000     0.333300000000     0.0829711  
N        N      0.000000000000     0.924200000000     0.666633000000     0.0829711  
N        N      0.075800000000     0.075800000000     0.999967000000     0.0829711  
O        O      0.205700000000     0.502600000000     0.154800000000    -0.526335   
O        O      0.497400000000     0.703100000000     0.488133000000    -0.526335   
O        O      0.296900000000     0.794300000000     0.821467000000    -0.526335   
O        O      0.502600000000     0.205700000000     0.845200000000    -0.526335   
O        O      0.703100000000     0.497400000000     0.511867000000    -0.526335   
O        O      0.794300000000     0.296900000000     0.178533000000    -0.526335   
O        O      0.516100000000     0.493600000000     0.414200000000    -0.526335   
O        O      0.506400000000     0.022500000000     0.747533000000    -0.526335   
O        O      0.977500000000     0.483900000000     0.080867000000    -0.526335   
O        O      0.493600000000     0.516100000000     0.585800000000    -0.526335   
O        O      0.022500000000     0.506400000000     0.252467000000    -0.526335   
O        O      0.483900000000     0.977500000000     0.919133000000    -0.526335   
O        O      0.141100000000     0.315300000000     0.180000000000    -0.526335   
O        O      0.684700000000     0.825800000000     0.513333000000    -0.526335   
O        O      0.174200000000     0.858900000000     0.846667000000    -0.526335   
O        O      0.315300000000     0.141100000000     0.820000000000    -0.526335   
O        O      0.825800000000     0.684700000000     0.486667000000    -0.526335   
O        O      0.858900000000     0.174200000000     0.153333000000    -0.526335   
O        O      0.647700000000     0.669600000000     0.367700000000    -0.526335   
O        O      0.330400000000     0.978100000000     0.701033000000    -0.526335   
O        O      0.021900000000     0.352300000000     0.034367000000    -0.526335   
O        O      0.669600000000     0.647700000000     0.632300000000    -0.526335   
O        O      0.978100000000     0.330400000000     0.298967000000    -0.526335   
O        O      0.352300000000     0.021900000000     0.965633000000    -0.526335   


