data_EBOTOF_original

_audit_creation_method RASPA-1.0
_audit_creation_date 2022-1-31
_audit_author_name 'Felipe Lopes de Oliveira <felipe.lopes.oliveira@ibm.com>'

_cell_length_a    4.9114
_cell_length_b    12.0591
_cell_length_c    19.1647
_cell_angle_alpha 90
_cell_angle_beta  90
_cell_angle_gamma 90
_cell_volume      1135.07

_symmetry_cell_setting          triclinic
_symmetry_space_group_name_Hall 'P 1'
_symmetry_space_group_name_H-M  'P 1'
_symmetry_Int_Tables_number     1

_symmetry_equiv_pos_as_xyz 'x,y,z'

loop_
_atom_site_label
_atom_site_type_symbol
_atom_site_fract_x
_atom_site_fract_y
_atom_site_fract_z
_atom_site_charge
Al       Al     0.266300000000     0.750000000000     0.937660000000     5.51219    
Al       Al     0.266300000000     0.750000000000     0.562340000000     5.51219    
Al       Al     0.733700000000     0.250000000000     0.437660000000     5.51219    
Al       Al     0.733700000000     0.250000000000     0.062340000000     5.51219    
Al       Al     0.000000000000     0.000000000000     0.000000000000     5.51219    
Al       Al     0.000000000000     0.500000000000     0.500000000000     5.51219    
Al       Al     0.000000000000     0.000000000000     0.500000000000     5.51219    
Al       Al     0.000000000000     0.500000000000     0.000000000000     5.51219    
P        P      0.497600000000     0.984570000000     0.895290000000     0.958442   
P        P      0.497600000000     0.515430000000     0.604710000000     0.958442   
P        P      0.502400000000     0.015430000000     0.395290000000     0.958442   
P        P      0.502400000000     0.484570000000     0.104710000000     0.958442   
P        P      0.502400000000     0.015430000000     0.104710000000     0.958442   
P        P      0.502400000000     0.484570000000     0.395290000000     0.958442   
P        P      0.497600000000     0.984570000000     0.604710000000     0.958442   
P        P      0.497600000000     0.515430000000     0.895290000000     0.958442   
C        C      0.440800000000     0.051600000000     0.812420000000    -0.124628   
C        C      0.440800000000     0.448400000000     0.687580000000    -0.124628   
C        C      0.559200000000     0.948400000000     0.312420000000    -0.124628   
C        C      0.559200000000     0.551600000000     0.187580000000    -0.124628   
C        C      0.559200000000     0.948400000000     0.187580000000    -0.124628   
C        C      0.559200000000     0.551600000000     0.312420000000    -0.124628   
C        C      0.440800000000     0.051600000000     0.687580000000    -0.124628   
C        C      0.440800000000     0.448400000000     0.812420000000    -0.124628   
C        C      0.548600000000     0.987600000000     0.750000000000    -0.124628   
C        C      0.548600000000     0.512400000000     0.750000000000    -0.124628   
C        C      0.451400000000     0.012400000000     0.250000000000    -0.124628   
C        C      0.451400000000     0.487600000000     0.250000000000    -0.124628   
O        O      0.799700000000     0.997000000000     0.914670000000    -1.39942    
O        O      0.465600000000     0.857600000000     0.889800000000    -1.39942    
O        O      0.317200000000     0.041300000000     0.950800000000    -1.39942    
O        O      0.799700000000     0.503000000000     0.585330000000    -1.39942    
O        O      0.465600000000     0.642400000000     0.610200000000    -1.39942    
O        O      0.317200000000     0.458700000000     0.549200000000    -1.39942    
O        O      0.200300000000     0.003000000000     0.414670000000    -1.39942    
O        O      0.534400000000     0.142400000000     0.389800000000    -1.39942    
O        O      0.682800000000     0.958700000000     0.450800000000    -1.39942    
O        O      0.200300000000     0.497000000000     0.085330000000    -1.39942    
O        O      0.534400000000     0.357600000000     0.110200000000    -1.39942    
O        O      0.682800000000     0.541300000000     0.049200000000    -1.39942    
O        O      0.200300000000     0.003000000000     0.085330000000    -1.39942    
O        O      0.534400000000     0.142400000000     0.110200000000    -1.39942    
O        O      0.682800000000     0.958700000000     0.049200000000    -1.39942    
O        O      0.200300000000     0.497000000000     0.414670000000    -1.39942    
O        O      0.534400000000     0.357600000000     0.389800000000    -1.39942    
O        O      0.682800000000     0.541300000000     0.450800000000    -1.39942    
O        O      0.799700000000     0.997000000000     0.585330000000    -1.39942    
O        O      0.465600000000     0.857600000000     0.610200000000    -1.39942    
O        O      0.317200000000     0.041300000000     0.549200000000    -1.39942    
O        O      0.799700000000     0.503000000000     0.914670000000    -1.39942    
O        O      0.465600000000     0.642400000000     0.889800000000    -1.39942    
O        O      0.317200000000     0.458700000000     0.950800000000    -1.39942    
F        F      0.073700000000     0.853900000000     0.986500000000    -2.08543    
F        F      0.073700000000     0.646100000000     0.513500000000    -2.08543    
F        F      0.926300000000     0.146100000000     0.486500000000    -2.08543    
F        F      0.926300000000     0.353900000000     0.013500000000    -2.08543    
F        F      0.926300000000     0.146100000000     0.013500000000    -2.08543    
F        F      0.926300000000     0.353900000000     0.486500000000    -2.08543    
F        F      0.073700000000     0.853900000000     0.513500000000    -2.08543    
F        F      0.073700000000     0.646100000000     0.986500000000    -2.08543    


