data_ECAHAT_original

_audit_creation_method RASPA-1.0
_audit_creation_date 2022-1-30
_audit_author_name 'Felipe Lopes de Oliveira <felipe.lopes.oliveira@ibm.com>'

_cell_length_a    7.7165
_cell_length_b    21.746
_cell_length_c    21.746
_cell_angle_alpha 120
_cell_angle_beta  90
_cell_angle_gamma 90
_cell_volume      3160.16

_symmetry_cell_setting          triclinic
_symmetry_space_group_name_Hall 'P 1'
_symmetry_space_group_name_H-M  'P 1'
_symmetry_Int_Tables_number     1

_symmetry_equiv_pos_as_xyz 'x,y,z'

loop_
_atom_site_label
_atom_site_type_symbol
_atom_site_fract_x
_atom_site_fract_y
_atom_site_fract_z
_atom_site_charge
Zn       Zn     0.000000000000     0.500000000000     0.500000000000     0.477717   
Zn       Zn     0.000000000000     0.000000000000     0.500000000000     0.477717   
Zn       Zn     0.000000000000     0.500000000000     0.000000000000     0.477717   
H        H      0.437700000000     0.345200000000     0.382100000000     0.105361   
H        H      0.320500000000     0.319800000000     0.312800000000     0.105361   
H        H      0.326900000000     0.273600000000     0.351400000000     0.105361   
H        H      0.085800000000     0.277500000000     0.406700000000     0.105361   
H        H      0.919900000000     0.211300000000     0.415600000000     0.105361   
H        H      0.715900000000     0.139700000000     0.425700000000     0.105361   
H        H      0.420900000000     0.308700000000     0.546100000000     0.105361   
H        H      0.618600000000     0.380000000000     0.530400000000     0.105361   
H        H      0.583500000000     0.091800000000     0.480800000000     0.105361   
H        H      0.378900000000     0.017700000000     0.483400000000     0.105361   
H        H      0.009500000000     0.152300000000     0.515800000000     0.105361   
H        H      0.204100000000     0.231900000000     0.515900000000     0.105361   
H        H      0.437700000000     0.036900000000     0.654800000000     0.105361   
H        H      0.320500000000     0.993000000000     0.680200000000     0.105361   
H        H      0.326900000000     0.077800000000     0.726400000000     0.105361   
H        H      0.085800000000     0.129200000000     0.722500000000     0.105361   
H        H      0.919900000000     0.204300000000     0.788700000000     0.105361   
H        H      0.715900000000     0.286000000000     0.860300000000     0.105361   
H        H      0.420900000000     0.237400000000     0.691300000000     0.105361   
H        H      0.618600000000     0.150400000000     0.620000000000     0.105361   
H        H      0.583500000000     0.389000000000     0.908200000000     0.105361   
H        H      0.378900000000     0.465700000000     0.982300000000     0.105361   
H        H      0.009500000000     0.363500000000     0.847700000000     0.105361   
H        H      0.204100000000     0.284000000000     0.768100000000     0.105361   
H        H      0.437700000000     0.617900000000     0.963100000000     0.105361   
H        H      0.320500000000     0.687200000000     0.007000000000     0.105361   
H        H      0.326900000000     0.648600000000     0.922200000000     0.105361   
H        H      0.085800000000     0.593300000000     0.870800000000     0.105361   
H        H      0.919900000000     0.584400000000     0.795700000000     0.105361   
H        H      0.715900000000     0.574300000000     0.714000000000     0.105361   
H        H      0.420900000000     0.453900000000     0.762600000000     0.105361   
H        H      0.618600000000     0.469600000000     0.849600000000     0.105361   
H        H      0.583500000000     0.519200000000     0.611000000000     0.105361   
H        H      0.378900000000     0.516600000000     0.534300000000     0.105361   
H        H      0.009500000000     0.484200000000     0.636500000000     0.105361   
H        H      0.204100000000     0.484100000000     0.716000000000     0.105361   
H        H      0.562300000000     0.654800000000     0.617900000000     0.105361   
H        H      0.679500000000     0.680200000000     0.687200000000     0.105361   
H        H      0.673100000000     0.726400000000     0.648600000000     0.105361   
H        H      0.914200000000     0.722500000000     0.593300000000     0.105361   
H        H      0.080100000000     0.788700000000     0.584400000000     0.105361   
H        H      0.284100000000     0.860300000000     0.574300000000     0.105361   
H        H      0.579100000000     0.691300000000     0.453900000000     0.105361   
H        H      0.381400000000     0.620000000000     0.469600000000     0.105361   
H        H      0.416500000000     0.908200000000     0.519200000000     0.105361   
H        H      0.621100000000     0.982300000000     0.516600000000     0.105361   
H        H      0.990500000000     0.847700000000     0.484200000000     0.105361   
H        H      0.795900000000     0.768100000000     0.484100000000     0.105361   
H        H      0.562300000000     0.963100000000     0.345200000000     0.105361   
H        H      0.679500000000     0.007000000000     0.319800000000     0.105361   
H        H      0.673100000000     0.922200000000     0.273600000000     0.105361   
H        H      0.914200000000     0.870800000000     0.277500000000     0.105361   
H        H      0.080100000000     0.795700000000     0.211300000000     0.105361   
H        H      0.284100000000     0.714000000000     0.139700000000     0.105361   
H        H      0.579100000000     0.762600000000     0.308700000000     0.105361   
H        H      0.381400000000     0.849600000000     0.380000000000     0.105361   
H        H      0.416500000000     0.611000000000     0.091800000000     0.105361   
H        H      0.621100000000     0.534300000000     0.017700000000     0.105361   
H        H      0.990500000000     0.636500000000     0.152300000000     0.105361   
H        H      0.795900000000     0.716000000000     0.231900000000     0.105361   
H        H      0.562300000000     0.382100000000     0.036900000000     0.105361   
H        H      0.679500000000     0.312800000000     0.993000000000     0.105361   
H        H      0.673100000000     0.351400000000     0.077800000000     0.105361   
H        H      0.914200000000     0.406700000000     0.129200000000     0.105361   
H        H      0.080100000000     0.415600000000     0.204300000000     0.105361   
H        H      0.284100000000     0.425700000000     0.286000000000     0.105361   
H        H      0.579100000000     0.546100000000     0.237400000000     0.105361   
H        H      0.381400000000     0.530400000000     0.150400000000     0.105361   
H        H      0.416500000000     0.480800000000     0.389000000000     0.105361   
H        H      0.621100000000     0.483400000000     0.465700000000     0.105361   
H        H      0.990500000000     0.515800000000     0.363500000000     0.105361   
H        H      0.795900000000     0.515900000000     0.284000000000     0.105361   
C        C      0.329000000000     0.321880000000     0.358770000000    -0.0475601  
C        C      0.177640000000     0.363640000000     0.405040000000    -0.0475601  
C        C      0.060610000000     0.326170000000     0.423600000000    -0.0475601  
C        C      0.910760000000     0.353380000000     0.464450000000    -0.0475601  
C        C      0.787460000000     0.303820000000     0.470910000000    -0.0475601  
C        C      0.815790000000     0.231710000000     0.441130000000    -0.0475601  
C        C      0.695120000000     0.189380000000     0.447980000000    -0.0475601  
C        C      0.546430000000     0.216040000000     0.485660000000    -0.0475601  
C        C      0.521000000000     0.287980000000     0.517760000000    -0.0475601  
C        C      0.640500000000     0.330490000000     0.508980000000    -0.0475601  
C        C      0.418420000000     0.168200000000     0.491730000000    -0.0475601  
C        C      0.464980000000     0.105350000000     0.486330000000    -0.0475601  
C        C      0.341890000000     0.061810000000     0.488890000000    -0.0475601  
C        C      0.128450000000     0.139510000000     0.507860000000    -0.0475601  
C        C      0.243000000000     0.186650000000     0.506670000000    -0.0475601  
C        C      0.329000000000     0.036890000000     0.678120000000    -0.0475601  
C        C      0.177640000000     0.041400000000     0.636360000000    -0.0475601  
C        C      0.060610000000     0.097430000000     0.673830000000    -0.0475601  
C        C      0.910760000000     0.111070000000     0.646620000000    -0.0475601  
C        C      0.787460000000     0.167090000000     0.696180000000    -0.0475601  
C        C      0.815790000000     0.209420000000     0.768290000000    -0.0475601  
C        C      0.695120000000     0.258600000000     0.810620000000    -0.0475601  
C        C      0.546430000000     0.269620000000     0.783960000000    -0.0475601  
C        C      0.521000000000     0.229780000000     0.712020000000    -0.0475601  
C        C      0.640500000000     0.178490000000     0.669510000000    -0.0475601  
C        C      0.418420000000     0.323530000000     0.831800000000    -0.0475601  
C        C      0.464980000000     0.380980000000     0.894650000000    -0.0475601  
C        C      0.341890000000     0.427080000000     0.938190000000    -0.0475601  
C        C      0.128450000000     0.368350000000     0.860490000000    -0.0475601  
C        C      0.243000000000     0.320020000000     0.813350000000    -0.0475601  
C        C      0.329000000000     0.641230000000     0.963110000000    -0.0475601  
C        C      0.177640000000     0.594960000000     0.958600000000    -0.0475601  
C        C      0.060610000000     0.576400000000     0.902570000000    -0.0475601  
C        C      0.910760000000     0.535550000000     0.888930000000    -0.0475601  
C        C      0.787460000000     0.529090000000     0.832910000000    -0.0475601  
C        C      0.815790000000     0.558870000000     0.790580000000    -0.0475601  
C        C      0.695120000000     0.552020000000     0.741400000000    -0.0475601  
C        C      0.546430000000     0.514340000000     0.730380000000    -0.0475601  
C        C      0.521000000000     0.482240000000     0.770220000000    -0.0475601  
C        C      0.640500000000     0.491020000000     0.821510000000    -0.0475601  
C        C      0.418420000000     0.508270000000     0.676470000000    -0.0475601  
C        C      0.464980000000     0.513670000000     0.619020000000    -0.0475601  
C        C      0.341890000000     0.511110000000     0.572920000000    -0.0475601  
C        C      0.128450000000     0.492140000000     0.631650000000    -0.0475601  
C        C      0.243000000000     0.493330000000     0.679980000000    -0.0475601  
C        C      0.671000000000     0.678120000000     0.641230000000    -0.0475601  
C        C      0.822360000000     0.636360000000     0.594960000000    -0.0475601  
C        C      0.939390000000     0.673830000000     0.576400000000    -0.0475601  
C        C      0.089240000000     0.646620000000     0.535550000000    -0.0475601  
C        C      0.212540000000     0.696180000000     0.529090000000    -0.0475601  
C        C      0.184210000000     0.768290000000     0.558870000000    -0.0475601  
C        C      0.304880000000     0.810620000000     0.552020000000    -0.0475601  
C        C      0.453570000000     0.783960000000     0.514340000000    -0.0475601  
C        C      0.479000000000     0.712020000000     0.482240000000    -0.0475601  
C        C      0.359500000000     0.669510000000     0.491020000000    -0.0475601  
C        C      0.581580000000     0.831800000000     0.508270000000    -0.0475601  
C        C      0.535020000000     0.894650000000     0.513670000000    -0.0475601  
C        C      0.658110000000     0.938190000000     0.511110000000    -0.0475601  
C        C      0.871550000000     0.860490000000     0.492140000000    -0.0475601  
C        C      0.757000000000     0.813350000000     0.493330000000    -0.0475601  
C        C      0.671000000000     0.963110000000     0.321880000000    -0.0475601  
C        C      0.822360000000     0.958600000000     0.363640000000    -0.0475601  
C        C      0.939390000000     0.902570000000     0.326170000000    -0.0475601  
C        C      0.089240000000     0.888930000000     0.353380000000    -0.0475601  
C        C      0.212540000000     0.832910000000     0.303820000000    -0.0475601  
C        C      0.184210000000     0.790580000000     0.231710000000    -0.0475601  
C        C      0.304880000000     0.741400000000     0.189380000000    -0.0475601  
C        C      0.453570000000     0.730380000000     0.216040000000    -0.0475601  
C        C      0.479000000000     0.770220000000     0.287980000000    -0.0475601  
C        C      0.359500000000     0.821510000000     0.330490000000    -0.0475601  
C        C      0.581580000000     0.676470000000     0.168200000000    -0.0475601  
C        C      0.535020000000     0.619020000000     0.105350000000    -0.0475601  
C        C      0.658110000000     0.572920000000     0.061810000000    -0.0475601  
C        C      0.871550000000     0.631650000000     0.139510000000    -0.0475601  
C        C      0.757000000000     0.679980000000     0.186650000000    -0.0475601  
C        C      0.671000000000     0.358770000000     0.036890000000    -0.0475601  
C        C      0.822360000000     0.405040000000     0.041400000000    -0.0475601  
C        C      0.939390000000     0.423600000000     0.097430000000    -0.0475601  
C        C      0.089240000000     0.464450000000     0.111070000000    -0.0475601  
C        C      0.212540000000     0.470910000000     0.167090000000    -0.0475601  
C        C      0.184210000000     0.441130000000     0.209420000000    -0.0475601  
C        C      0.304880000000     0.447980000000     0.258600000000    -0.0475601  
C        C      0.453570000000     0.485660000000     0.269620000000    -0.0475601  
C        C      0.479000000000     0.517760000000     0.229780000000    -0.0475601  
C        C      0.359500000000     0.508980000000     0.178490000000    -0.0475601  
C        C      0.581580000000     0.491730000000     0.323530000000    -0.0475601  
C        C      0.535020000000     0.486330000000     0.380980000000    -0.0475601  
C        C      0.658110000000     0.488890000000     0.427080000000    -0.0475601  
C        C      0.871550000000     0.507860000000     0.368350000000    -0.0475601  
C        C      0.757000000000     0.506670000000     0.320020000000    -0.0475601  
N        N      0.174980000000     0.076580000000     0.498420000000    -0.158393   
N        N      0.174980000000     0.421840000000     0.923420000000    -0.158393   
N        N      0.174980000000     0.501580000000     0.578160000000    -0.158393   
N        N      0.825020000000     0.923420000000     0.501580000000    -0.158393   
N        N      0.825020000000     0.578160000000     0.076580000000    -0.158393   
N        N      0.825020000000     0.498420000000     0.421840000000    -0.158393   
O        O      0.865100000000     0.418000000000     0.496920000000    -0.315696   
O        O      0.166970000000     0.427700000000     0.422240000000    -0.315696   
O        O      0.865100000000     0.078920000000     0.582000000000    -0.315696   
O        O      0.166970000000     0.994540000000     0.572300000000    -0.315696   
O        O      0.865100000000     0.503080000000     0.921080000000    -0.315696   
O        O      0.166970000000     0.577760000000     0.005460000000    -0.315696   
O        O      0.134900000000     0.582000000000     0.503080000000    -0.315696   
O        O      0.833030000000     0.572300000000     0.577760000000    -0.315696   
O        O      0.134900000000     0.921080000000     0.418000000000    -0.315696   
O        O      0.833030000000     0.005460000000     0.427700000000    -0.315696   
O        O      0.134900000000     0.496920000000     0.078920000000    -0.315696   
O        O      0.833030000000     0.422240000000     0.994540000000    -0.315696   


