data_ECIWUJ_original

_audit_creation_method RASPA-1.0
_audit_creation_date 2022-1-31
_audit_author_name 'Felipe Lopes de Oliveira <felipe.lopes.oliveira@ibm.com>'

_cell_length_a    7.7911
_cell_length_b    9.2984
_cell_length_c    10.6284
_cell_angle_alpha 65.32
_cell_angle_beta  86.199
_cell_angle_gamma 78.145
_cell_volume      684.551

_symmetry_cell_setting          triclinic
_symmetry_space_group_name_Hall 'P 1'
_symmetry_space_group_name_H-M  'P 1'
_symmetry_Int_Tables_number     1

_symmetry_equiv_pos_as_xyz 'x,y,z'

loop_
_atom_site_label
_atom_site_type_symbol
_atom_site_fract_x
_atom_site_fract_y
_atom_site_fract_z
_atom_site_charge
Zn       Zn     0.364880000000     0.436750000000     0.455890000000     0.465591   
Zn       Zn     0.635120000000     0.563250000000     0.544110000000     0.465591   
H        H      0.070200000000     0.188500000000     0.572200000000     0.0605028  
H        H      0.718200000000     0.037700000000     0.411400000000     0.0605028  
H        H      0.354800000000     0.243500000000     0.288400000000     0.0605028  
H        H      0.204800000000     0.269200000000     0.098900000000     0.0605028  
H        H      0.299000000000     0.004000000000     0.842000000000     0.0605028  
H        H      0.016000000000     0.592000000000     0.322000000000     0.0605028  
H        H      0.653000000000     0.207000000000     0.928000000000     0.0605028  
H        H      0.877000000000     0.621000000000     0.125000000000     0.0605028  
H        H      0.929800000000     0.811500000000     0.427800000000     0.0605028  
H        H      0.281800000000     0.962300000000     0.588600000000     0.0605028  
H        H      0.645200000000     0.756500000000     0.711600000000     0.0605028  
H        H      0.795200000000     0.730800000000     0.901100000000     0.0605028  
H        H      0.701000000000     0.996000000000     0.158000000000     0.0605028  
H        H      0.984000000000     0.408000000000     0.678000000000     0.0605028  
H        H      0.347000000000     0.793000000000     0.072000000000     0.0605028  
H        H      0.123000000000     0.379000000000     0.875000000000     0.0605028  
C        C      0.438300000000     0.267200000000     0.729100000000     0.028821   
C        C      0.467600000000     0.129200000000     0.870400000000     0.028821   
C        C      0.375800000000     0.005000000000     0.909900000000     0.028821   
C        C      0.591700000000     0.123700000000     0.961300000000     0.028821   
C        C      0.739800000000     0.279700000000     0.479400000000     0.028821   
C        C      0.042300000000     0.112400000000     0.542800000000     0.028821   
C        C      0.832500000000     0.022300000000     0.446900000000     0.028821   
C        C      0.260300000000     0.332300000000     0.249000000000     0.028821   
C        C      0.175000000000     0.350300000000     0.133200000000     0.028821   
C        C      0.045000000000     0.485100000000     0.064900000000     0.028821   
C        C      0.974100000000     0.559400000000     0.147800000000     0.028821   
C        C      0.062200000000     0.531400000000     0.266300000000     0.028821   
C        C      0.874800000000     0.135600000000     0.488800000000     0.028821   
C        C      0.561700000000     0.732800000000     0.270900000000     0.028821   
C        C      0.532400000000     0.870800000000     0.129600000000     0.028821   
C        C      0.624200000000     0.995000000000     0.090100000000     0.028821   
C        C      0.408300000000     0.876300000000     0.038700000000     0.028821   
C        C      0.260200000000     0.720300000000     0.520600000000     0.028821   
C        C      0.957700000000     0.887600000000     0.457200000000     0.028821   
C        C      0.167500000000     0.977700000000     0.553100000000     0.028821   
C        C      0.739700000000     0.667700000000     0.751000000000     0.028821   
C        C      0.825000000000     0.649700000000     0.866800000000     0.028821   
C        C      0.955000000000     0.514900000000     0.935100000000     0.028821   
C        C      0.025900000000     0.440600000000     0.852200000000     0.028821   
C        C      0.937800000000     0.468600000000     0.733700000000     0.028821   
C        C      0.125200000000     0.864400000000     0.511200000000     0.028821   
N        N      0.215500000000     0.434200000000     0.307100000000    -0.173214   
N        N      0.784500000000     0.565800000000     0.692900000000    -0.173214   
O        O      0.327600000000     0.266900000000     0.648700000000    -0.287768   
O        O      0.528300000000     0.373400000000     0.700800000000    -0.287768   
O        O      0.584200000000     0.284200000000     0.446000000000    -0.287768   
O        O      0.789700000000     0.383800000000     0.509000000000    -0.287768   
O        O      0.672400000000     0.733100000000     0.351300000000    -0.287768   
O        O      0.471700000000     0.626600000000     0.299200000000    -0.287768   
O        O      0.415800000000     0.715800000000     0.554000000000    -0.287768   
O        O      0.210300000000     0.616200000000     0.491000000000    -0.287768   


