data_EGEJIK_original

_audit_creation_method RASPA-1.0
_audit_creation_date 2022-1-31
_audit_author_name 'Felipe Lopes de Oliveira <felipe.lopes.oliveira@ibm.com>'

_cell_length_a    16.9981
_cell_length_b    16.9981
_cell_length_c    17.12
_cell_angle_alpha 95.4935
_cell_angle_beta  95.4935
_cell_angle_gamma 95.768
_cell_volume      4871.13

_symmetry_cell_setting          triclinic
_symmetry_space_group_name_Hall 'P 1'
_symmetry_space_group_name_H-M  'P 1'
_symmetry_Int_Tables_number     1

_symmetry_equiv_pos_as_xyz 'x,y,z'

loop_
_atom_site_label
_atom_site_type_symbol
_atom_site_fract_x
_atom_site_fract_y
_atom_site_fract_z
_atom_site_charge
Zn       Zn     0.903340000000     0.786150000000     0.678140000000     0.545762   
Zn       Zn     0.785150000000     0.902600000000     0.675920000000     0.545762   
Zn       Zn     0.915480000000     0.918650000000     0.812280000000     0.545762   
Zn       Zn     0.783560000000     0.784650000000     0.795490000000     0.545762   
Zn       Zn     0.213850000000     0.096660000000     0.321860000000     0.545762   
Zn       Zn     0.097400000000     0.214850000000     0.324080000000     0.545762   
Zn       Zn     0.081350000000     0.084520000000     0.187720000000     0.545762   
Zn       Zn     0.215350000000     0.216440000000     0.204510000000     0.545762   
H        H      0.131110000000     0.812200000000     0.628250000000     0.0457677  
H        H      0.274010000000     0.811400000000     0.625380000000     0.0457677  
H        H      0.314140000000     0.925500000000     0.863980000000     0.0457677  
H        H      0.169760000000     0.927700000000     0.866680000000     0.0457677  
H        H      0.397690000000     0.908950000000     0.629430000000     0.0457677  
H        H      0.539250000000     0.896490000000     0.623440000000     0.0457677  
H        H      0.550670000000     0.800760000000     0.848350000000     0.0457677  
H        H      0.409060000000     0.814400000000     0.854620000000     0.0457677  
H        H      0.799280000000     0.952560000000     0.299760000000     0.0457677  
H        H      0.790000000000     0.948750000000     0.441280000000     0.0457677  
H        H      0.812680000000     0.131620000000     0.624980000000     0.0457677  
H        H      0.811890000000     0.274630000000     0.621690000000     0.0457677  
H        H      0.905030000000     0.313900000000     0.867260000000     0.0457677  
H        H      0.906890000000     0.169720000000     0.870510000000     0.0457677  
H        H      0.909560000000     0.398450000000     0.633450000000     0.0457677  
H        H      0.900680000000     0.540650000000     0.627510000000     0.0457677  
H        H      0.787100000000     0.550750000000     0.842720000000     0.0457677  
H        H      0.796980000000     0.408630000000     0.848920000000     0.0457677  
H        H      0.906030000000     0.732670000000     0.291000000000     0.0457677  
H        H      0.897920000000     0.729240000000     0.432870000000     0.0457677  
H        H      0.187800000000     0.868890000000     0.371750000000     0.0457677  
H        H      0.188600000000     0.725990000000     0.374620000000     0.0457677  
H        H      0.074500000000     0.685860000000     0.136020000000     0.0457677  
H        H      0.072300000000     0.830240000000     0.133320000000     0.0457677  
H        H      0.091050000000     0.602310000000     0.370570000000     0.0457677  
H        H      0.103510000000     0.460750000000     0.376560000000     0.0457677  
H        H      0.199240000000     0.449330000000     0.151650000000     0.0457677  
H        H      0.185600000000     0.590940000000     0.145380000000     0.0457677  
H        H      0.047440000000     0.200720000000     0.700240000000     0.0457677  
H        H      0.051250000000     0.210000000000     0.558720000000     0.0457677  
H        H      0.868380000000     0.187320000000     0.375020000000     0.0457677  
H        H      0.725370000000     0.188110000000     0.378310000000     0.0457677  
H        H      0.686100000000     0.094970000000     0.132740000000     0.0457677  
H        H      0.830280000000     0.093110000000     0.129490000000     0.0457677  
H        H      0.601550000000     0.090440000000     0.366550000000     0.0457677  
H        H      0.459350000000     0.099320000000     0.372490000000     0.0457677  
H        H      0.449250000000     0.212900000000     0.157280000000     0.0457677  
H        H      0.591370000000     0.203020000000     0.151080000000     0.0457677  
H        H      0.267330000000     0.093970000000     0.709000000000     0.0457677  
H        H      0.270760000000     0.102080000000     0.567130000000     0.0457677  
H        H      0.810350000000     0.727340000000     0.023100000000     0.0457677  
H        H      0.808700000000     0.722350000000     0.165280000000     0.0457677  
H        H      0.907920000000     0.967140000000     0.207370000000     0.0457677  
H        H      0.911820000000     0.972690000000     0.064360000000     0.0457677  
H        H      0.272660000000     0.189650000000     0.976900000000     0.0457677  
H        H      0.277650000000     0.191300000000     0.834720000000     0.0457677  
H        H      0.032860000000     0.092080000000     0.792630000000     0.0457677  
H        H      0.027310000000     0.088180000000     0.935640000000     0.0457677  
C        C      0.050930000000     0.864120000000     0.749560000000     0.0266324  
C        C      0.138780000000     0.869300000000     0.748050000000     0.0266324  
C        C      0.170170000000     0.837600000000     0.680170000000     0.0266324  
C        C      0.252180000000     0.837450000000     0.678240000000     0.0266324  
C        C      0.305340000000     0.867890000000     0.744530000000     0.0266324  
C        C      0.274440000000     0.900890000000     0.812250000000     0.0266324  
C        C      0.191970000000     0.902480000000     0.813680000000     0.0266324  
C        C      0.392320000000     0.863020000000     0.742680000000     0.0266324  
C        C      0.430530000000     0.885240000000     0.677540000000     0.0266324  
C        C      0.511590000000     0.878000000000     0.674110000000     0.0266324  
C        C      0.556300000000     0.846930000000     0.735070000000     0.0266324  
C        C      0.517900000000     0.824150000000     0.800020000000     0.0266324  
C        C      0.437050000000     0.832770000000     0.804090000000     0.0266324  
C        C      0.643230000000     0.842440000000     0.732890000000     0.0266324  
C        C      0.820930000000     0.903480000000     0.328200000000     0.0266324  
C        C      0.815020000000     0.900900000000     0.409210000000     0.0266324  
C        C      0.856050000000     0.051500000000     0.749300000000     0.0266324  
C        C      0.859290000000     0.139160000000     0.748250000000     0.0266324  
C        C      0.833250000000     0.170600000000     0.678380000000     0.0266324  
C        C      0.833210000000     0.252600000000     0.676250000000     0.0266324  
C        C      0.858050000000     0.305490000000     0.744230000000     0.0266324  
C        C      0.884870000000     0.274410000000     0.814130000000     0.0266324  
C        C      0.886310000000     0.192070000000     0.815910000000     0.0266324  
C        C      0.854280000000     0.392470000000     0.741850000000     0.0266324  
C        C      0.882570000000     0.431140000000     0.679340000000     0.0266324  
C        C      0.877460000000     0.512550000000     0.675970000000     0.0266324  
C        C      0.842620000000     0.557060000000     0.734300000000     0.0266324  
C        C      0.813640000000     0.518150000000     0.796450000000     0.0266324  
C        C      0.820010000000     0.436980000000     0.800510000000     0.0266324  
C        C      0.840200000000     0.644220000000     0.732620000000     0.0266324  
C        C      0.832370000000     0.780290000000     0.062500000000     0.0266324  
C        C      0.831710000000     0.777180000000     0.144030000000     0.0266324  
C        C      0.886970000000     0.914820000000     0.167210000000     0.0266324  
C        C      0.889440000000     0.917630000000     0.085600000000     0.0266324  
C        C      0.880190000000     0.779880000000     0.323180000000     0.0266324  
C        C      0.875620000000     0.778040000000     0.404510000000     0.0266324  
C        C      0.857630000000     0.853340000000     0.944770000000     0.0266324  
C        C      0.860830000000     0.850620000000     0.032010000000     0.0266324  
C        C      0.857880000000     0.844810000000     0.197410000000     0.0266324  
C        C      0.853230000000     0.842810000000     0.284040000000     0.0266324  
C        C      0.842600000000     0.838320000000     0.448650000000     0.0266324  
C        C      0.840470000000     0.838120000000     0.535780000000     0.0266324  
C        C      0.135880000000     0.949070000000     0.250440000000     0.0266324  
C        C      0.130700000000     0.861220000000     0.251950000000     0.0266324  
C        C      0.162400000000     0.829830000000     0.319830000000     0.0266324  
C        C      0.162550000000     0.747820000000     0.321760000000     0.0266324  
C        C      0.132110000000     0.694660000000     0.255470000000     0.0266324  
C        C      0.099110000000     0.725560000000     0.187750000000     0.0266324  
C        C      0.097520000000     0.808030000000     0.186320000000     0.0266324  
C        C      0.136980000000     0.607680000000     0.257320000000     0.0266324  
C        C      0.114760000000     0.569470000000     0.322460000000     0.0266324  
C        C      0.122000000000     0.488410000000     0.325890000000     0.0266324  
C        C      0.153070000000     0.443700000000     0.264930000000     0.0266324  
C        C      0.175850000000     0.482100000000     0.199980000000     0.0266324  
C        C      0.167230000000     0.562950000000     0.195910000000     0.0266324  
C        C      0.157560000000     0.356770000000     0.267110000000     0.0266324  
C        C      0.096520000000     0.179070000000     0.671800000000     0.0266324  
C        C      0.099100000000     0.184980000000     0.590790000000     0.0266324  
C        C      0.948500000000     0.143950000000     0.250700000000     0.0266324  
C        C      0.860840000000     0.140710000000     0.251750000000     0.0266324  
C        C      0.829400000000     0.166750000000     0.321620000000     0.0266324  
C        C      0.747400000000     0.166790000000     0.323750000000     0.0266324  
C        C      0.694510000000     0.141950000000     0.255770000000     0.0266324  
C        C      0.725590000000     0.115130000000     0.185870000000     0.0266324  
C        C      0.807930000000     0.113690000000     0.184090000000     0.0266324  
C        C      0.607530000000     0.145720000000     0.258150000000     0.0266324  
C        C      0.568860000000     0.117430000000     0.320660000000     0.0266324  
C        C      0.487450000000     0.122540000000     0.324030000000     0.0266324  
C        C      0.442940000000     0.157380000000     0.265700000000     0.0266324  
C        C      0.481850000000     0.186360000000     0.203550000000     0.0266324  
C        C      0.563020000000     0.179990000000     0.199490000000     0.0266324  
C        C      0.355780000000     0.159800000000     0.267380000000     0.0266324  
C        C      0.219710000000     0.167630000000     0.937500000000     0.0266324  
C        C      0.222820000000     0.168290000000     0.855970000000     0.0266324  
C        C      0.085180000000     0.113030000000     0.832790000000     0.0266324  
C        C      0.082370000000     0.110560000000     0.914400000000     0.0266324  
C        C      0.220120000000     0.119810000000     0.676820000000     0.0266324  
C        C      0.221960000000     0.124380000000     0.595490000000     0.0266324  
C        C      0.146660000000     0.142370000000     0.055230000000     0.0266324  
C        C      0.149380000000     0.139170000000     0.967990000000     0.0266324  
C        C      0.155190000000     0.142120000000     0.802590000000     0.0266324  
C        C      0.157190000000     0.146770000000     0.715960000000     0.0266324  
C        C      0.161680000000     0.157400000000     0.551350000000     0.0266324  
C        C      0.161880000000     0.159530000000     0.464220000000     0.0266324  
O        O      0.019820000000     0.909640000000     0.798700000000    -0.338464   
O        O      0.007940000000     0.813040000000     0.700260000000    -0.338464   
O        O      0.679310000000     0.798810000000     0.777630000000    -0.338464   
O        O      0.885730000000     0.681960000000     0.690750000000    -0.338464   
O        O      0.884170000000     0.795060000000     0.573640000000    -0.338464   
O        O      0.900070000000     0.021560000000     0.800540000000    -0.338464   
O        O      0.808960000000     0.007510000000     0.697210000000    -0.338464   
O        O      0.794590000000     0.680310000000     0.774900000000    -0.338464   
O        O      0.680790000000     0.884410000000     0.687820000000    -0.338464   
O        O      0.796970000000     0.882840000000     0.571920000000    -0.338464   
O        O      0.847180000000     0.848270000000     0.740800000000    -0.338464   
O        O      0.903840000000     0.903760000000     0.915400000000    -0.338464   
O        O      0.807710000000     0.804010000000     0.900390000000    -0.338464   
O        O      0.090360000000     0.980180000000     0.201300000000    -0.338464   
O        O      0.186960000000     0.992060000000     0.299740000000    -0.338464   
O        O      0.201190000000     0.320690000000     0.222370000000    -0.338464   
O        O      0.318040000000     0.114270000000     0.309250000000    -0.338464   
O        O      0.204940000000     0.115830000000     0.426360000000    -0.338464   
O        O      0.978440000000     0.099930000000     0.199460000000    -0.338464   
O        O      0.992490000000     0.191040000000     0.302790000000    -0.338464   
O        O      0.319690000000     0.205410000000     0.225100000000    -0.338464   
O        O      0.115590000000     0.319210000000     0.312180000000    -0.338464   
O        O      0.117160000000     0.203030000000     0.428080000000    -0.338464   
O        O      0.151730000000     0.152820000000     0.259200000000    -0.338464   
O        O      0.096240000000     0.096160000000     0.084600000000    -0.338464   
O        O      0.195990000000     0.192290000000     0.099610000000    -0.338464   


