data_EHALOP_original

_audit_creation_method RASPA-1.0
_audit_creation_date 2022-1-29
_audit_author_name 'Felipe Lopes de Oliveira <felipe.lopes.oliveira@ibm.com>'

_cell_length_a    6.631
_cell_length_b    11.0737
_cell_length_c    11.0774
_cell_angle_alpha 77.8696
_cell_angle_beta  72.6499
_cell_angle_gamma 72.644
_cell_volume      734.462

_symmetry_cell_setting          triclinic
_symmetry_space_group_name_Hall 'P 1'
_symmetry_space_group_name_H-M  'P 1'
_symmetry_Int_Tables_number     1

_symmetry_equiv_pos_as_xyz 'x,y,z'

loop_
_atom_site_label
_atom_site_type_symbol
_atom_site_fract_x
_atom_site_fract_y
_atom_site_fract_z
_atom_site_charge
Al       Al     0.495848000000     0.497797000000     0.499658000000     22.2799    
Al       Al     0.996148000000     0.498687000000     0.499308000000     22.2799    
H        H      0.613604000000     0.113262000000     0.502583000000     0.470355   
H        H      0.877522000000     0.496311000000     0.882312000000     0.470355   
H        H      0.730261000000     0.881521000000     0.496962000000     0.470355   
H        H      0.760715000000     0.501373000000     0.115314000000     0.470355   
H        H      0.379211000000     0.881030000000     0.497091000000     0.470355   
H        H      0.112144000000     0.501442000000     0.114343000000     0.470355   
H        H      0.262304000000     0.113753000000     0.502414000000     0.470355   
H        H      0.228322000000     0.496292000000     0.883313000000     0.470355   
H        H      0.250101000000     0.380445000000     0.608130000000     0.470355   
H        H      0.751279000000     0.605662000000     0.380448000000     0.470355   
C        C      0.781126000000     0.064379000000     0.501981000000     0.690788   
C        C      0.709890000000     0.497495000000     0.931555000000     0.690788   
C        C      0.848549000000     0.930583000000     0.497204000000     0.690788   
C        C      0.643376000000     0.499869000000     0.066151000000     0.690788   
C        C      0.211779000000     0.930313000000     0.497293000000     0.690788   
C        C      0.280285000000     0.499908000000     0.065651000000     0.690788   
C        C      0.144256000000     0.064639000000     0.501882000000     0.690788   
C        C      0.346531000000     0.497486000000     0.932065000000     0.690788   
C        C      0.928617000000     0.132993000000     0.499307000000     0.690788   
C        C      0.856848000000     0.275996000000     0.500110000000     0.690788   
C        C      0.565556000000     0.494846000000     0.864115000000     0.690788   
C        C      0.637376000000     0.493744000000     0.721613000000     0.690788   
C        C      0.065528000000     0.862508000000     0.498297000000     0.690788   
C        C      0.136907000000     0.720016000000     0.497385000000     0.690788   
C        C      0.426179000000     0.501437000000     0.133990000000     0.690788   
C        C      0.354940000000     0.501869000000     0.276962000000     0.690788   
O        O      0.654716000000     0.334125000000     0.504293000000    -6.0316     
O        O      0.835050000000     0.494518000000     0.661072000000    -6.0316     
O        O      0.993319000000     0.659877000000     0.495312000000    -6.0316     
O        O      0.498004000000     0.500342000000     0.335991000000    -6.0316     
O        O      0.336180000000     0.659288000000     0.496462000000    -6.0316     
O        O      0.154354000000     0.501453000000     0.335481000000    -6.0316     
O        O      0.998135000000     0.334704000000     0.503072000000    -6.0316     
O        O      0.492499000000     0.493417000000     0.661592000000    -6.0316     
O        O      0.747945000000     0.547411000000     0.445794000000    -6.0316     
O        O      0.247535000000     0.445133000000     0.548975000000    -6.0316     


