data_EMIVAY_original

_audit_creation_method RASPA-1.0
_audit_creation_date 2022-1-29
_audit_author_name 'Felipe Lopes de Oliveira <felipe.lopes.oliveira@ibm.com>'

_cell_length_a    10.1389
_cell_length_b    14.1837
_cell_length_c    22.0518
_cell_angle_alpha 90
_cell_angle_beta  90
_cell_angle_gamma 90
_cell_volume      3171.21

_symmetry_cell_setting          triclinic
_symmetry_space_group_name_Hall 'P 1'
_symmetry_space_group_name_H-M  'P 1'
_symmetry_Int_Tables_number     1

_symmetry_equiv_pos_as_xyz 'x,y,z'

loop_
_atom_site_label
_atom_site_type_symbol
_atom_site_fract_x
_atom_site_fract_y
_atom_site_fract_z
_atom_site_charge
Zn       Zn     0.493830000000     0.250000000000     0.525460000000     0.431897   
Zn       Zn     0.506170000000     0.750000000000     0.474540000000     0.431897   
Zn       Zn     0.493830000000     0.750000000000     0.974540000000     0.431897   
Zn       Zn     0.506170000000     0.250000000000     0.025460000000     0.431897   
H        H      0.444600000000     0.250000000000     0.781500000000     0.0563523  
H        H      0.555400000000     0.750000000000     0.218500000000     0.0563523  
H        H      0.444600000000     0.750000000000     0.718500000000     0.0563523  
H        H      0.555400000000     0.250000000000     0.281500000000     0.0563523  
H        H      0.172900000000     0.250000000000     0.913700000000     0.0563523  
H        H      0.827100000000     0.750000000000     0.086300000000     0.0563523  
H        H      0.172900000000     0.750000000000     0.586300000000     0.0563523  
H        H      0.827100000000     0.250000000000     0.413700000000     0.0563523  
H        H      0.077900000000     0.250000000000     0.642200000000     0.0563523  
H        H      0.922100000000     0.750000000000     0.357800000000     0.0563523  
H        H      0.077900000000     0.750000000000     0.857800000000     0.0563523  
H        H      0.922100000000     0.250000000000     0.142200000000     0.0563523  
H        H      0.280700000000     0.250000000000     0.708200000000     0.0563523  
H        H      0.719300000000     0.750000000000     0.291800000000     0.0563523  
H        H      0.280700000000     0.750000000000     0.791800000000     0.0563523  
H        H      0.719300000000     0.250000000000     0.208200000000     0.0563523  
H        H      0.290800000000     0.133500000000     0.449400000000     0.0563523  
H        H      0.709200000000     0.633500000000     0.550600000000     0.0563523  
H        H      0.290800000000     0.866500000000     0.050600000000     0.0563523  
H        H      0.709200000000     0.366500000000     0.949400000000     0.0563523  
H        H      0.709200000000     0.866500000000     0.550600000000     0.0563523  
H        H      0.290800000000     0.366500000000     0.449400000000     0.0563523  
H        H      0.709200000000     0.133500000000     0.949400000000     0.0563523  
H        H      0.290800000000     0.633500000000     0.050600000000     0.0563523  
H        H      0.872900000000     0.250000000000     0.596700000000     0.0563523  
H        H      0.127100000000     0.750000000000     0.403300000000     0.0563523  
H        H      0.872900000000     0.750000000000     0.903300000000     0.0563523  
H        H      0.127100000000     0.250000000000     0.096700000000     0.0563523  
H        H      0.153500000000     0.991200000000     0.424300000000     0.0563523  
H        H      0.846500000000     0.491200000000     0.575700000000     0.0563523  
H        H      0.153500000000     0.008800000000     0.075700000000     0.0563523  
H        H      0.846500000000     0.508800000000     0.924300000000     0.0563523  
H        H      0.846500000000     0.008800000000     0.575700000000     0.0563523  
H        H      0.153500000000     0.508800000000     0.424300000000     0.0563523  
H        H      0.846500000000     0.991200000000     0.924300000000     0.0563523  
H        H      0.153500000000     0.491200000000     0.075700000000     0.0563523  
H        H      0.200900000000     0.898800000000     0.456800000000     0.0563523  
H        H      0.799100000000     0.398800000000     0.543200000000     0.0563523  
H        H      0.200900000000     0.101200000000     0.043200000000     0.0563523  
H        H      0.799100000000     0.601200000000     0.956800000000     0.0563523  
H        H      0.799100000000     0.101200000000     0.543200000000     0.0563523  
H        H      0.200900000000     0.601200000000     0.456800000000     0.0563523  
H        H      0.799100000000     0.898800000000     0.956800000000     0.0563523  
H        H      0.200900000000     0.398800000000     0.043200000000     0.0563523  
H        H      0.692800000000     0.250000000000     0.759600000000     0.0563523  
H        H      0.307200000000     0.750000000000     0.240400000000     0.0563523  
H        H      0.692800000000     0.750000000000     0.740400000000     0.0563523  
H        H      0.307200000000     0.250000000000     0.259600000000     0.0563523  
H        H      0.046600000000     0.923900000000     0.534300000000     0.0563523  
H        H      0.953400000000     0.423900000000     0.465700000000     0.0563523  
H        H      0.046600000000     0.076100000000     0.965700000000     0.0563523  
H        H      0.953400000000     0.576100000000     0.034300000000     0.0563523  
H        H      0.953400000000     0.076100000000     0.465700000000     0.0563523  
H        H      0.046600000000     0.576100000000     0.534300000000     0.0563523  
H        H      0.953400000000     0.923900000000     0.034300000000     0.0563523  
H        H      0.046600000000     0.423900000000     0.965700000000     0.0563523  
H        H      0.976400000000     0.913400000000     0.471400000000     0.0563523  
H        H      0.023600000000     0.413400000000     0.528600000000     0.0563523  
H        H      0.976400000000     0.086600000000     0.028600000000     0.0563523  
H        H      0.023600000000     0.586600000000     0.971400000000     0.0563523  
H        H      0.023600000000     0.086600000000     0.528600000000     0.0563523  
H        H      0.976400000000     0.586600000000     0.471400000000     0.0563523  
H        H      0.023600000000     0.913400000000     0.971400000000     0.0563523  
H        H      0.976400000000     0.413400000000     0.028600000000     0.0563523  
H        H      0.434600000000     0.070200000000     0.608700000000     0.0563523  
H        H      0.565400000000     0.570200000000     0.391300000000     0.0563523  
H        H      0.434600000000     0.929800000000     0.891300000000     0.0563523  
H        H      0.565400000000     0.429800000000     0.108700000000     0.0563523  
H        H      0.565400000000     0.929800000000     0.391300000000     0.0563523  
H        H      0.434600000000     0.429800000000     0.608700000000     0.0563523  
H        H      0.565400000000     0.070200000000     0.108700000000     0.0563523  
H        H      0.434600000000     0.570200000000     0.891300000000     0.0563523  
H        H      0.296600000000     0.939600000000     0.575900000000     0.0563523  
H        H      0.703400000000     0.439600000000     0.424100000000     0.0563523  
H        H      0.296600000000     0.060400000000     0.924100000000     0.0563523  
H        H      0.703400000000     0.560400000000     0.075900000000     0.0563523  
H        H      0.703400000000     0.060400000000     0.424100000000     0.0563523  
H        H      0.296600000000     0.560400000000     0.575900000000     0.0563523  
H        H      0.703400000000     0.939600000000     0.075900000000     0.0563523  
H        H      0.296600000000     0.439600000000     0.924100000000     0.0563523  
C        C      0.127700000000     0.250000000000     0.767000000000     0.00940442 
C        C      0.872300000000     0.750000000000     0.233000000000     0.00940442 
C        C      0.127700000000     0.750000000000     0.733000000000     0.00940442 
C        C      0.872300000000     0.250000000000     0.267000000000     0.00940442 
C        C      0.356600000000     0.250000000000     0.793300000000     0.00940442 
C        C      0.643400000000     0.750000000000     0.206700000000     0.00940442 
C        C      0.356600000000     0.750000000000     0.706700000000     0.00940442 
C        C      0.643400000000     0.250000000000     0.293300000000     0.00940442 
C        C      0.434800000000     0.250000000000     0.901800000000     0.00940442 
C        C      0.565200000000     0.750000000000     0.098200000000     0.00940442 
C        C      0.434800000000     0.750000000000     0.598200000000     0.00940442 
C        C      0.565200000000     0.250000000000     0.401800000000     0.00940442 
C        C      0.097900000000     0.250000000000     0.829100000000     0.00940442 
C        C      0.902100000000     0.750000000000     0.170900000000     0.00940442 
C        C      0.097900000000     0.750000000000     0.670900000000     0.00940442 
C        C      0.902100000000     0.250000000000     0.329100000000     0.00940442 
C        C      0.761500000000     0.250000000000     0.672400000000     0.00940442 
C        C      0.238500000000     0.750000000000     0.327600000000     0.00940442 
C        C      0.761500000000     0.750000000000     0.827600000000     0.00940442 
C        C      0.238500000000     0.250000000000     0.172400000000     0.00940442 
C        C      0.194500000000     0.250000000000     0.872700000000     0.00940442 
C        C      0.805500000000     0.750000000000     0.127300000000     0.00940442 
C        C      0.194500000000     0.750000000000     0.627300000000     0.00940442 
C        C      0.805500000000     0.250000000000     0.372700000000     0.00940442 
C        C      0.001700000000     0.250000000000     0.665600000000     0.00940442 
C        C      0.998300000000     0.750000000000     0.334400000000     0.00940442 
C        C      0.001700000000     0.750000000000     0.834400000000     0.00940442 
C        C      0.998300000000     0.250000000000     0.165600000000     0.00940442 
C        C      0.008600000000     0.250000000000     0.728700000000     0.00940442 
C        C      0.991400000000     0.750000000000     0.271300000000     0.00940442 
C        C      0.008600000000     0.750000000000     0.771300000000     0.00940442 
C        C      0.991400000000     0.250000000000     0.228700000000     0.00940442 
C        C      0.258600000000     0.250000000000     0.749100000000     0.00940442 
C        C      0.741400000000     0.750000000000     0.250900000000     0.00940442 
C        C      0.258600000000     0.750000000000     0.750900000000     0.00940442 
C        C      0.741400000000     0.250000000000     0.249100000000     0.00940442 
C        C      0.309600000000     0.101100000000     0.485070000000     0.00940442 
C        C      0.690400000000     0.601100000000     0.514930000000     0.00940442 
C        C      0.309600000000     0.898900000000     0.014930000000     0.00940442 
C        C      0.690400000000     0.398900000000     0.985070000000     0.00940442 
C        C      0.690400000000     0.898900000000     0.514930000000     0.00940442 
C        C      0.309600000000     0.398900000000     0.485070000000     0.00940442 
C        C      0.690400000000     0.101100000000     0.985070000000     0.00940442 
C        C      0.309600000000     0.601100000000     0.014930000000     0.00940442 
C        C      0.878300000000     0.250000000000     0.638800000000     0.00940442 
C        C      0.121700000000     0.750000000000     0.361200000000     0.00940442 
C        C      0.878300000000     0.750000000000     0.861200000000     0.00940442 
C        C      0.121700000000     0.250000000000     0.138800000000     0.00940442 
C        C      0.165800000000     0.961500000000     0.463600000000     0.00940442 
C        C      0.834200000000     0.461500000000     0.536400000000     0.00940442 
C        C      0.165800000000     0.038500000000     0.036400000000     0.00940442 
C        C      0.834200000000     0.538500000000     0.963600000000     0.00940442 
C        C      0.834200000000     0.038500000000     0.536400000000     0.00940442 
C        C      0.165800000000     0.538500000000     0.463600000000     0.00940442 
C        C      0.834200000000     0.961500000000     0.963600000000     0.00940442 
C        C      0.165800000000     0.461500000000     0.036400000000     0.00940442 
C        C      0.768800000000     0.250000000000     0.736000000000     0.00940442 
C        C      0.231200000000     0.750000000000     0.264000000000     0.00940442 
C        C      0.768800000000     0.750000000000     0.764000000000     0.00940442 
C        C      0.231200000000     0.250000000000     0.236000000000     0.00940442 
C        C      0.033600000000     0.953800000000     0.495200000000     0.00940442 
C        C      0.966400000000     0.453800000000     0.504800000000     0.00940442 
C        C      0.033600000000     0.046200000000     0.004800000000     0.00940442 
C        C      0.966400000000     0.546200000000     0.995200000000     0.00940442 
C        C      0.966400000000     0.046200000000     0.504800000000     0.00940442 
C        C      0.033600000000     0.546200000000     0.495200000000     0.00940442 
C        C      0.966400000000     0.953800000000     0.995200000000     0.00940442 
C        C      0.033600000000     0.453800000000     0.004800000000     0.00940442 
C        C      0.629800000000     0.250000000000     0.640600000000     0.00940442 
C        C      0.370200000000     0.750000000000     0.359400000000     0.00940442 
C        C      0.629800000000     0.750000000000     0.859400000000     0.00940442 
C        C      0.370200000000     0.250000000000     0.140600000000     0.00940442 
C        C      0.326100000000     0.250000000000     0.854000000000     0.00940442 
C        C      0.673900000000     0.750000000000     0.146000000000     0.00940442 
C        C      0.326100000000     0.750000000000     0.646000000000     0.00940442 
C        C      0.673900000000     0.250000000000     0.354000000000     0.00940442 
C        C      0.891000000000     0.250000000000     0.762100000000     0.00940442 
C        C      0.109000000000     0.750000000000     0.237900000000     0.00940442 
C        C      0.891000000000     0.750000000000     0.737900000000     0.00940442 
C        C      0.109000000000     0.250000000000     0.262100000000     0.00940442 
C        C      0.388700000000     0.066600000000     0.572300000000     0.00940442 
C        C      0.611300000000     0.566600000000     0.427700000000     0.00940442 
C        C      0.388700000000     0.933400000000     0.927700000000     0.00940442 
C        C      0.611300000000     0.433400000000     0.072300000000     0.00940442 
C        C      0.611300000000     0.933400000000     0.427700000000     0.00940442 
C        C      0.388700000000     0.433400000000     0.572300000000     0.00940442 
C        C      0.611300000000     0.066600000000     0.072300000000     0.00940442 
C        C      0.388700000000     0.566600000000     0.927700000000     0.00940442 
C        C      0.311900000000     0.994700000000     0.554200000000     0.00940442 
C        C      0.688100000000     0.494700000000     0.445800000000     0.00940442 
C        C      0.311900000000     0.005300000000     0.945800000000     0.00940442 
C        C      0.688100000000     0.505300000000     0.054200000000     0.00940442 
C        C      0.688100000000     0.005300000000     0.445800000000     0.00940442 
C        C      0.311900000000     0.505300000000     0.554200000000     0.00940442 
C        C      0.688100000000     0.994700000000     0.054200000000     0.00940442 
C        C      0.311900000000     0.494700000000     0.945800000000     0.00940442 
S        S      0.927090000000     0.250000000000     0.840800000000     0.334229   
S        S      0.072910000000     0.750000000000     0.159200000000     0.334229   
S        S      0.927090000000     0.750000000000     0.659200000000     0.334229   
S        S      0.072910000000     0.250000000000     0.340800000000     0.334229   
N        N      0.387600000000     0.133500000000     0.527470000000    -0.137596   
N        N      0.612400000000     0.633500000000     0.472530000000    -0.137596   
N        N      0.387600000000     0.866500000000     0.972530000000    -0.137596   
N        N      0.612400000000     0.366500000000     0.027470000000    -0.137596   
N        N      0.612400000000     0.866500000000     0.472530000000    -0.137596   
N        N      0.387600000000     0.366500000000     0.527470000000    -0.137596   
N        N      0.612400000000     0.133500000000     0.027470000000    -0.137596   
N        N      0.387600000000     0.633500000000     0.972530000000    -0.137596   
N        N      0.259800000000     0.016000000000     0.498630000000    -0.137596   
N        N      0.740200000000     0.516000000000     0.501370000000    -0.137596   
N        N      0.259800000000     0.984000000000     0.001370000000    -0.137596   
N        N      0.740200000000     0.484000000000     0.998630000000    -0.137596   
N        N      0.740200000000     0.984000000000     0.501370000000    -0.137596   
N        N      0.259800000000     0.484000000000     0.498630000000    -0.137596   
N        N      0.740200000000     0.016000000000     0.998630000000    -0.137596   
N        N      0.259800000000     0.516000000000     0.001370000000    -0.137596   
O        O      0.551500000000     0.250000000000     0.887000000000    -0.261416   
O        O      0.448500000000     0.750000000000     0.113000000000    -0.261416   
O        O      0.551500000000     0.750000000000     0.613000000000    -0.261416   
O        O      0.448500000000     0.250000000000     0.387000000000    -0.261416   
O        O      0.886800000000     0.164300000000     0.869190000000    -0.261416   
O        O      0.113200000000     0.664300000000     0.130810000000    -0.261416   
O        O      0.886800000000     0.835700000000     0.630810000000    -0.261416   
O        O      0.113200000000     0.335700000000     0.369190000000    -0.261416   
O        O      0.113200000000     0.835700000000     0.130810000000    -0.261416   
O        O      0.886800000000     0.335700000000     0.869190000000    -0.261416   
O        O      0.113200000000     0.164300000000     0.369190000000    -0.261416   
O        O      0.886800000000     0.664300000000     0.630810000000    -0.261416   
O        O      0.637300000000     0.250000000000     0.583250000000    -0.261416   
O        O      0.362700000000     0.750000000000     0.416750000000    -0.261416   
O        O      0.637300000000     0.750000000000     0.916750000000    -0.261416   
O        O      0.362700000000     0.250000000000     0.083250000000    -0.261416   
O        O      0.389800000000     0.250000000000     0.955930000000    -0.261416   
O        O      0.610200000000     0.750000000000     0.044070000000    -0.261416   
O        O      0.389800000000     0.750000000000     0.544070000000    -0.261416   
O        O      0.610200000000     0.250000000000     0.455930000000    -0.261416   
O        O      0.527600000000     0.250000000000     0.669800000000    -0.261416   
O        O      0.472400000000     0.750000000000     0.330200000000    -0.261416   
O        O      0.527600000000     0.750000000000     0.830200000000    -0.261416   
O        O      0.472400000000     0.250000000000     0.169800000000    -0.261416   


