data_FABFOF_original

_audit_creation_method RASPA-1.0
_audit_creation_date 2022-1-29
_audit_author_name 'Felipe Lopes de Oliveira <felipe.lopes.oliveira@ibm.com>'

_cell_length_a    9.592
_cell_length_b    9.592
_cell_length_c    11.021
_cell_angle_alpha 91.4204
_cell_angle_beta  91.4204
_cell_angle_gamma 105.98
_cell_volume      973.996

_symmetry_cell_setting          triclinic
_symmetry_space_group_name_Hall 'P 1'
_symmetry_space_group_name_H-M  'P 1'
_symmetry_Int_Tables_number     1

_symmetry_equiv_pos_as_xyz 'x,y,z'

loop_
_atom_site_label
_atom_site_type_symbol
_atom_site_fract_x
_atom_site_fract_y
_atom_site_fract_z
_atom_site_charge
Zn       Zn     0.500400000000     0.502230000000     0.252940000000     0.55034    
Zn       Zn     0.497370000000     0.505190000000     0.752830000000     0.55034    
H        H      0.532240000000     0.053280000000     0.724870000000     0.1035     
H        H      0.949670000000     0.472110000000     0.780890000000     0.1035     
H        H      0.464910000000     0.953910000000     0.281030000000     0.1035     
H        H      0.048090000000     0.535370000000     0.225020000000     0.1035     
H        H      0.876830000000     0.812500000000     0.457110000000     0.1035     
H        H      0.827700000000     0.812400000000     0.604800000000     0.1035     
H        H      0.918830000000     0.693470000000     0.554630000000     0.1035     
H        H      0.238650000000     0.127430000000     0.861950000000     0.1035     
H        H      0.225850000000     0.224360000000     0.991060000000     0.1035     
H        H      0.361910000000     0.142400000000     0.979090000000     0.1035     
H        H      0.146430000000     0.260640000000     0.367420000000     0.1035     
H        H      0.080930000000     0.354780000000     0.474860000000     0.1035     
H        H      0.247190000000     0.325750000000     0.496590000000     0.1035     
H        H      0.770600000000     0.920300000000     0.967900000000     0.1035     
H        H      0.680710000000     0.897740000000     0.100750000000     0.1035     
H        H      0.828300000000     0.833190000000     0.083910000000     0.1035     
H        H      0.670110000000     0.751950000000     0.005740000000     0.1035     
H        H      0.743220000000     0.671560000000     0.507880000000     0.1035     
H        H      0.094230000000     0.184780000000     0.503140000000     0.1035     
H        H      0.187430000000     0.039980000000     0.993300000000     0.1035     
C        C      0.500200000000     0.119600000000     0.423840000000     0.0916348  
C        C      0.493410000000     0.235120000000     0.336800000000     0.0916348  
C        C      0.519880000000     0.145730000000     0.551170000000     0.0916348  
C        C      0.516550000000     0.030270000000     0.627860000000     0.0916348  
C        C      0.544890000000     0.290850000000     0.609000000000     0.0916348  
C        C      0.882760000000     0.501820000000     0.082070000000     0.0916348  
C        C      0.767230000000     0.507990000000     0.169230000000     0.0916348  
C        C      0.856900000000     0.483530000000     0.954610000000     0.0916348  
C        C      0.972480000000     0.487150000000     0.877960000000     0.0916348  
C        C      0.711810000000     0.458800000000     0.896630000000     0.0916348  
C        C      0.496970000000     0.887570000000     0.582070000000     0.0916348  
C        C      0.503410000000     0.772090000000     0.669210000000     0.0916348  
C        C      0.477610000000     0.861470000000     0.454680000000     0.0916348  
C        C      0.480730000000     0.976910000000     0.378030000000     0.0916348  
C        C      0.453000000000     0.716360000000     0.396790000000     0.0916348  
C        C      0.115020000000     0.505900000000     0.923850000000     0.0916348  
C        C      0.230520000000     0.499140000000     0.836780000000     0.0916348  
C        C      0.140920000000     0.524520000000     0.051270000000     0.0916348  
C        C      0.025310000000     0.520660000000     0.127940000000     0.0916348  
C        C      0.286050000000     0.549410000000     0.109100000000     0.0916348  
N        N      0.841770000000     0.747550000000     0.531140000000    -0.280192   
N        N      0.253440000000     0.133590000000     0.956340000000    -0.280192   
N        N      0.142160000000     0.281490000000     0.460490000000    -0.280192   
N        N      0.737440000000     0.850870000000     0.039600000000    -0.280192   
O        O      0.515640000000     0.378940000000     0.375760000000    -0.242663   
O        O      0.467480000000     0.204160000000     0.229120000000    -0.242663   
O        O      0.653470000000     0.386960000000     0.587860000000    -0.242663   
O        O      0.447410000000     0.316010000000     0.692350000000    -0.242663   
O        O      0.623660000000     0.487120000000     0.130170000000    -0.242663   
O        O      0.797930000000     0.532260000000     0.277090000000    -0.242663   
O        O      0.615330000000     0.350670000000     0.918120000000    -0.242663   
O        O      0.686920000000     0.555920000000     0.812810000000    -0.242663   
O        O      0.481550000000     0.628350000000     0.630190000000    -0.242663   
O        O      0.528760000000     0.802940000000     0.776930000000    -0.242663   
O        O      0.344730000000     0.619930000000     0.418090000000    -0.242663   
O        O      0.550460000000     0.691570000000     0.313270000000    -0.242663   
O        O      0.374090000000     0.519780000000     0.875910000000    -0.242663   
O        O      0.199800000000     0.474680000000     0.728930000000    -0.242663   
O        O      0.382250000000     0.657910000000     0.087910000000    -0.242663   
O        O      0.311220000000     0.451870000000     0.192390000000    -0.242663   


