data_FAFJIH_original

_audit_creation_method RASPA-1.0
_audit_creation_date 2022-1-31
_audit_author_name 'Felipe Lopes de Oliveira <felipe.lopes.oliveira@ibm.com>'

_cell_length_a    12.4895
_cell_length_b    12.4895
_cell_length_c    18.254
_cell_angle_alpha 98.7567
_cell_angle_beta  98.7567
_cell_angle_gamma 116.378
_cell_volume      2442.23

_symmetry_cell_setting          triclinic
_symmetry_space_group_name_Hall 'P 1'
_symmetry_space_group_name_H-M  'P 1'
_symmetry_Int_Tables_number     1

_symmetry_equiv_pos_as_xyz 'x,y,z'

loop_
_atom_site_label
_atom_site_type_symbol
_atom_site_fract_x
_atom_site_fract_y
_atom_site_fract_z
_atom_site_charge
Zn       Zn     0.802180000000     0.659060000000     0.040910000000     0.389899   
Zn       Zn     0.340940000000     0.197820000000     0.459090000000     0.389899   
Zn       Zn     0.197820000000     0.340940000000     0.959090000000     0.389899   
Zn       Zn     0.659060000000     0.802180000000     0.540910000000     0.389899   
Zn       Zn     0.248550000000     0.751450000000     0.750000000000     0.389899   
Zn       Zn     0.751450000000     0.248550000000     0.250000000000     0.389899   
B        B      0.715900000000     0.029500000000     0.950000000000     0.925983   
B        B      0.970500000000     0.284100000000     0.550000000000     0.925983   
B        B      0.284100000000     0.970500000000     0.050000000000     0.925983   
B        B      0.029500000000     0.715900000000     0.450000000000     0.925983   
H        H      0.799000000000     0.969000000000     0.820000000000     0.0316681  
H        H      0.036000000000     0.116000000000     0.831000000000     0.0316681  
H        H      0.954000000000     0.238000000000     0.009000000000     0.0316681  
H        H      0.581000000000     0.705000000000     0.072000000000     0.0316681  
H        H      0.536000000000     0.880000000000     0.039000000000     0.0316681  
H        H      0.838000000000     0.896000000000     0.964000000000     0.0316681  
H        H      0.787000000000     0.067000000000     0.118000000000     0.0316681  
H        H      0.753000000000     0.355000000000     0.110000000000     0.0316681  
H        H      0.708000000000     0.268000000000     0.963000000000     0.0316681  
H        H      0.662500000000     0.124900000000     0.821600000000     0.0316681  
H        H      0.482000000000     0.976000000000     0.726000000000     0.0316681  
H        H      0.513000000000     0.817000000000     0.889000000000     0.0316681  
H        H      0.793000000000     0.535000000000     0.740000000000     0.0316681  
H        H      0.583000000000     0.355000000000     0.870000000000     0.0316681  
H        H      0.735000000000     0.639000000000     0.315000000000     0.0316681  
H        H      0.031000000000     0.201000000000     0.680000000000     0.0316681  
H        H      0.884000000000     0.964000000000     0.669000000000     0.0316681  
H        H      0.762000000000     0.046000000000     0.491000000000     0.0316681  
H        H      0.295000000000     0.419000000000     0.428000000000     0.0316681  
H        H      0.120000000000     0.464000000000     0.461000000000     0.0316681  
H        H      0.104000000000     0.162000000000     0.536000000000     0.0316681  
H        H      0.933000000000     0.213000000000     0.382000000000     0.0316681  
H        H      0.645000000000     0.247000000000     0.390000000000     0.0316681  
H        H      0.732000000000     0.292000000000     0.537000000000     0.0316681  
H        H      0.875100000000     0.337500000000     0.678400000000     0.0316681  
H        H      0.024000000000     0.518000000000     0.774000000000     0.0316681  
H        H      0.183000000000     0.487000000000     0.611000000000     0.0316681  
H        H      0.465000000000     0.207000000000     0.760000000000     0.0316681  
H        H      0.645000000000     0.417000000000     0.630000000000     0.0316681  
H        H      0.361000000000     0.265000000000     0.185000000000     0.0316681  
H        H      0.201000000000     0.031000000000     0.180000000000     0.0316681  
H        H      0.964000000000     0.884000000000     0.169000000000     0.0316681  
H        H      0.046000000000     0.762000000000     0.991000000000     0.0316681  
H        H      0.419000000000     0.295000000000     0.928000000000     0.0316681  
H        H      0.464000000000     0.120000000000     0.961000000000     0.0316681  
H        H      0.162000000000     0.104000000000     0.036000000000     0.0316681  
H        H      0.213000000000     0.933000000000     0.882000000000     0.0316681  
H        H      0.247000000000     0.645000000000     0.890000000000     0.0316681  
H        H      0.292000000000     0.732000000000     0.037000000000     0.0316681  
H        H      0.337500000000     0.875100000000     0.178400000000     0.0316681  
H        H      0.518000000000     0.024000000000     0.274000000000     0.0316681  
H        H      0.487000000000     0.183000000000     0.111000000000     0.0316681  
H        H      0.207000000000     0.465000000000     0.260000000000     0.0316681  
H        H      0.417000000000     0.645000000000     0.130000000000     0.0316681  
H        H      0.265000000000     0.361000000000     0.685000000000     0.0316681  
H        H      0.969000000000     0.799000000000     0.320000000000     0.0316681  
H        H      0.116000000000     0.036000000000     0.331000000000     0.0316681  
H        H      0.238000000000     0.954000000000     0.509000000000     0.0316681  
H        H      0.705000000000     0.581000000000     0.572000000000     0.0316681  
H        H      0.880000000000     0.536000000000     0.539000000000     0.0316681  
H        H      0.896000000000     0.838000000000     0.464000000000     0.0316681  
H        H      0.067000000000     0.787000000000     0.618000000000     0.0316681  
H        H      0.355000000000     0.753000000000     0.610000000000     0.0316681  
H        H      0.268000000000     0.708000000000     0.463000000000     0.0316681  
H        H      0.124900000000     0.662500000000     0.321600000000     0.0316681  
H        H      0.976000000000     0.482000000000     0.226000000000     0.0316681  
H        H      0.817000000000     0.513000000000     0.389000000000     0.0316681  
H        H      0.535000000000     0.793000000000     0.240000000000     0.0316681  
H        H      0.355000000000     0.583000000000     0.370000000000     0.0316681  
H        H      0.639000000000     0.735000000000     0.815000000000     0.0316681  
C        C      0.858100000000     0.034100000000     0.855400000000     0.0483478  
C        C      0.973700000000     0.114500000000     0.854800000000     0.0483478  
C        C      0.939100000000     0.187700000000     0.960400000000     0.0483478  
C        C      0.622600000000     0.761200000000     0.038200000000     0.0483478  
C        C      0.604500000000     0.852300000000     0.019300000000     0.0483478  
C        C      0.763700000000     0.856100000000     0.980800000000     0.0483478  
C        C      0.757300000000     0.133100000000     0.092300000000     0.0483478  
C        C      0.756000000000     0.302600000000     0.087000000000     0.0483478  
C        C      0.721300000000     0.236100000000     0.013100000000     0.0483478  
C        C      0.601400000000     0.047800000000     0.822400000000     0.0483478  
C        C      0.496300000000     0.978100000000     0.769200000000     0.0483478  
C        C      0.497300000000     0.881500000000     0.855500000000     0.0483478  
C        C      0.793400000000     0.551600000000     0.890800000000     0.0483478  
C        C      0.730400000000     0.474600000000     0.746600000000     0.0483478  
C        C      0.708300000000     0.455300000000     0.816600000000     0.0483478  
C        C      0.607200000000     0.351800000000     0.819500000000     0.0483478  
C        C      0.718300000000     0.613300000000     0.172500000000     0.0483478  
C        C      0.628900000000     0.528900000000     0.212200000000     0.0483478  
C        C      0.651400000000     0.559800000000     0.292200000000     0.0483478  
C        C      0.521300000000     0.425700000000     0.169300000000     0.0483478  
C        C      0.965900000000     0.141900000000     0.644600000000     0.0483478  
C        C      0.885500000000     0.026300000000     0.645200000000     0.0483478  
C        C      0.812300000000     0.060900000000     0.539600000000     0.0483478  
C        C      0.238800000000     0.377400000000     0.461800000000     0.0483478  
C        C      0.147700000000     0.395500000000     0.480700000000     0.0483478  
C        C      0.143900000000     0.236300000000     0.519200000000     0.0483478  
C        C      0.866900000000     0.242700000000     0.407700000000     0.0483478  
C        C      0.697400000000     0.244000000000     0.413000000000     0.0483478  
C        C      0.763900000000     0.278700000000     0.486900000000     0.0483478  
C        C      0.952200000000     0.398600000000     0.677600000000     0.0483478  
C        C      0.021900000000     0.503700000000     0.730800000000     0.0483478  
C        C      0.118500000000     0.502700000000     0.644500000000     0.0483478  
C        C      0.448400000000     0.206600000000     0.609200000000     0.0483478  
C        C      0.525400000000     0.269600000000     0.753400000000     0.0483478  
C        C      0.544700000000     0.291700000000     0.683400000000     0.0483478  
C        C      0.648200000000     0.392800000000     0.680500000000     0.0483478  
C        C      0.386700000000     0.281700000000     0.327500000000     0.0483478  
C        C      0.471100000000     0.371100000000     0.287800000000     0.0483478  
C        C      0.440200000000     0.348600000000     0.207800000000     0.0483478  
C        C      0.574300000000     0.478700000000     0.330700000000     0.0483478  
C        C      0.141900000000     0.965900000000     0.144600000000     0.0483478  
C        C      0.026300000000     0.885500000000     0.145200000000     0.0483478  
C        C      0.060900000000     0.812300000000     0.039600000000     0.0483478  
C        C      0.377400000000     0.238800000000     0.961800000000     0.0483478  
C        C      0.395500000000     0.147700000000     0.980700000000     0.0483478  
C        C      0.236300000000     0.143900000000     0.019200000000     0.0483478  
C        C      0.242700000000     0.866900000000     0.907700000000     0.0483478  
C        C      0.244000000000     0.697400000000     0.913000000000     0.0483478  
C        C      0.278700000000     0.763900000000     0.986900000000     0.0483478  
C        C      0.398600000000     0.952200000000     0.177600000000     0.0483478  
C        C      0.503700000000     0.021900000000     0.230800000000     0.0483478  
C        C      0.502700000000     0.118500000000     0.144500000000     0.0483478  
C        C      0.206600000000     0.448400000000     0.109200000000     0.0483478  
C        C      0.269600000000     0.525400000000     0.253400000000     0.0483478  
C        C      0.291700000000     0.544700000000     0.183400000000     0.0483478  
C        C      0.392800000000     0.648200000000     0.180500000000     0.0483478  
C        C      0.281700000000     0.386700000000     0.827500000000     0.0483478  
C        C      0.371100000000     0.471100000000     0.787800000000     0.0483478  
C        C      0.348600000000     0.440200000000     0.707800000000     0.0483478  
C        C      0.478700000000     0.574300000000     0.830700000000     0.0483478  
C        C      0.034100000000     0.858100000000     0.355400000000     0.0483478  
C        C      0.114500000000     0.973700000000     0.354800000000     0.0483478  
C        C      0.187700000000     0.939100000000     0.460400000000     0.0483478  
C        C      0.761200000000     0.622600000000     0.538200000000     0.0483478  
C        C      0.852300000000     0.604500000000     0.519300000000     0.0483478  
C        C      0.856100000000     0.763700000000     0.480800000000     0.0483478  
C        C      0.133100000000     0.757300000000     0.592300000000     0.0483478  
C        C      0.302600000000     0.756000000000     0.587000000000     0.0483478  
C        C      0.236100000000     0.721300000000     0.513100000000     0.0483478  
C        C      0.047800000000     0.601400000000     0.322400000000     0.0483478  
C        C      0.978100000000     0.496300000000     0.269200000000     0.0483478  
C        C      0.881500000000     0.497300000000     0.355500000000     0.0483478  
C        C      0.551600000000     0.793400000000     0.390800000000     0.0483478  
C        C      0.474600000000     0.730400000000     0.246600000000     0.0483478  
C        C      0.455300000000     0.708300000000     0.316600000000     0.0483478  
C        C      0.351800000000     0.607200000000     0.319500000000     0.0483478  
C        C      0.613300000000     0.718300000000     0.672500000000     0.0483478  
C        C      0.528900000000     0.628900000000     0.712200000000     0.0483478  
C        C      0.559800000000     0.651400000000     0.792200000000     0.0483478  
C        C      0.425700000000     0.521300000000     0.669300000000     0.0483478  
N        N      0.024400000000     0.212000000000     0.920600000000    -0.232425   
N        N      0.834500000000     0.081100000000     0.922600000000    -0.232425   
N        N      0.722200000000     0.762000000000     0.014300000000    -0.232425   
N        N      0.695400000000     0.914600000000     0.982200000000    -0.232425   
N        N      0.773400000000     0.238000000000     0.137200000000    -0.232425   
N        N      0.722700000000     0.128700000000     0.016700000000    -0.232425   
N        N      0.605400000000     0.987200000000     0.879200000000    -0.232425   
N        N      0.428600000000     0.872000000000     0.789800000000    -0.232425   
N        N      0.788000000000     0.975600000000     0.579400000000    -0.232425   
N        N      0.918900000000     0.165500000000     0.577400000000    -0.232425   
N        N      0.238000000000     0.277800000000     0.485700000000    -0.232425   
N        N      0.085400000000     0.304600000000     0.517800000000    -0.232425   
N        N      0.762000000000     0.226600000000     0.362800000000    -0.232425   
N        N      0.871300000000     0.277300000000     0.483300000000    -0.232425   
N        N      0.012800000000     0.394600000000     0.620800000000    -0.232425   
N        N      0.128000000000     0.571400000000     0.710200000000    -0.232425   
N        N      0.975600000000     0.788000000000     0.079400000000    -0.232425   
N        N      0.165500000000     0.918900000000     0.077400000000    -0.232425   
N        N      0.277800000000     0.238000000000     0.985700000000    -0.232425   
N        N      0.304600000000     0.085400000000     0.017800000000    -0.232425   
N        N      0.226600000000     0.762000000000     0.862800000000    -0.232425   
N        N      0.277300000000     0.871300000000     0.983300000000    -0.232425   
N        N      0.394600000000     0.012800000000     0.120800000000    -0.232425   
N        N      0.571400000000     0.128000000000     0.210200000000    -0.232425   
N        N      0.212000000000     0.024400000000     0.420600000000    -0.232425   
N        N      0.081100000000     0.834500000000     0.422600000000    -0.232425   
N        N      0.762000000000     0.722200000000     0.514300000000    -0.232425   
N        N      0.914600000000     0.695400000000     0.482200000000    -0.232425   
N        N      0.238000000000     0.773400000000     0.637200000000    -0.232425   
N        N      0.128700000000     0.722700000000     0.516700000000    -0.232425   
N        N      0.987200000000     0.605400000000     0.379200000000    -0.232425   
N        N      0.872000000000     0.428600000000     0.289800000000    -0.232425   
O        O      0.875800000000     0.650400000000     0.887700000000    -0.273352   
O        O      0.763300000000     0.525900000000     0.953700000000    -0.273352   
O        O      0.793900000000     0.720700000000     0.207200000000    -0.273352   
O        O      0.705900000000     0.562100000000     0.102700000000    -0.273352   
O        O      0.349600000000     0.124200000000     0.612300000000    -0.273352   
O        O      0.474100000000     0.236700000000     0.546300000000    -0.273352   
O        O      0.279300000000     0.206100000000     0.292800000000    -0.273352   
O        O      0.437900000000     0.294100000000     0.397300000000    -0.273352   
O        O      0.124200000000     0.349600000000     0.112300000000    -0.273352   
O        O      0.236700000000     0.474100000000     0.046300000000    -0.273352   
O        O      0.206100000000     0.279300000000     0.792800000000    -0.273352   
O        O      0.294100000000     0.437900000000     0.897300000000    -0.273352   
O        O      0.650400000000     0.875800000000     0.387700000000    -0.273352   
O        O      0.525900000000     0.763300000000     0.453700000000    -0.273352   
O        O      0.720700000000     0.793900000000     0.707200000000    -0.273352   
O        O      0.562100000000     0.705900000000     0.602700000000    -0.273352   


