data_FAGREM_original

_audit_creation_method RASPA-1.0
_audit_creation_date 2022-1-30
_audit_author_name 'Felipe Lopes de Oliveira <felipe.lopes.oliveira@ibm.com>'

_cell_length_a    10.918
_cell_length_b    17.1253
_cell_length_c    17.2092
_cell_angle_alpha 90
_cell_angle_beta  90
_cell_angle_gamma 90
_cell_volume      3217.67

_symmetry_cell_setting          triclinic
_symmetry_space_group_name_Hall 'P 1'
_symmetry_space_group_name_H-M  'P 1'
_symmetry_Int_Tables_number     1

_symmetry_equiv_pos_as_xyz 'x,y,z'

loop_
_atom_site_label
_atom_site_type_symbol
_atom_site_fract_x
_atom_site_fract_y
_atom_site_fract_z
_atom_site_charge
Zn       Zn     0.176380000000     0.216340000000     0.495980000000     0.472156   
Zn       Zn     0.555290000000     0.647850000000     0.933310000000     0.472156   
Zn       Zn     0.665220000000     0.598360000000     0.110310000000     0.472156   
Zn       Zn     0.286260000000     0.604150000000     0.009730000000     0.472156   
Zn       Zn     0.323620000000     0.783660000000     0.995980000000     0.472156   
Zn       Zn     0.944710000000     0.352150000000     0.433310000000     0.472156   
Zn       Zn     0.834780000000     0.401640000000     0.610310000000     0.472156   
Zn       Zn     0.213740000000     0.395850000000     0.509730000000     0.472156   
Zn       Zn     0.823620000000     0.716340000000     0.004020000000     0.472156   
Zn       Zn     0.444710000000     0.147850000000     0.566690000000     0.472156   
Zn       Zn     0.334780000000     0.098360000000     0.389690000000     0.472156   
Zn       Zn     0.713740000000     0.104150000000     0.490270000000     0.472156   
Zn       Zn     0.676380000000     0.283660000000     0.504020000000     0.472156   
Zn       Zn     0.055290000000     0.852150000000     0.066690000000     0.472156   
Zn       Zn     0.165220000000     0.901640000000     0.889690000000     0.472156   
Zn       Zn     0.786260000000     0.895850000000     0.990270000000     0.472156   
H        H      0.034000000000     0.319400000000     0.558300000000     0.0928911  
H        H      0.259200000000     0.081100000000     0.523700000000     0.0928911  
H        H      0.237200000000     0.416100000000     0.164300000000     0.0928911  
H        H      0.212100000000     0.322100000000     0.259300000000     0.0928911  
H        H      0.559100000000     0.477000000000     0.255900000000     0.0928911  
H        H      0.215800000000     0.433600000000     0.832900000000     0.0928911  
H        H      0.194700000000     0.342900000000     0.735100000000     0.0928911  
H        H      0.567700000000     0.465800000000     0.771600000000     0.0928911  
H        H      0.466000000000     0.680600000000     0.058300000000     0.0928911  
H        H      0.240800000000     0.918900000000     0.023700000000     0.0928911  
H        H      0.262800000000     0.583900000000     0.664300000000     0.0928911  
H        H      0.287900000000     0.677900000000     0.759300000000     0.0928911  
H        H      0.940900000000     0.523000000000     0.755900000000     0.0928911  
H        H      0.284200000000     0.566400000000     0.332900000000     0.0928911  
H        H      0.305300000000     0.657100000000     0.235100000000     0.0928911  
H        H      0.932300000000     0.534200000000     0.271600000000     0.0928911  
H        H      0.966000000000     0.819400000000     0.941700000000     0.0928911  
H        H      0.740800000000     0.581100000000     0.976300000000     0.0928911  
H        H      0.762800000000     0.916100000000     0.335700000000     0.0928911  
H        H      0.787900000000     0.822100000000     0.240700000000     0.0928911  
H        H      0.440900000000     0.977000000000     0.244100000000     0.0928911  
H        H      0.784200000000     0.933600000000     0.667100000000     0.0928911  
H        H      0.805300000000     0.842900000000     0.764900000000     0.0928911  
H        H      0.432300000000     0.965800000000     0.728400000000     0.0928911  
H        H      0.534000000000     0.180600000000     0.441700000000     0.0928911  
H        H      0.759200000000     0.418900000000     0.476300000000     0.0928911  
H        H      0.737200000000     0.083900000000     0.835700000000     0.0928911  
H        H      0.712100000000     0.177900000000     0.740700000000     0.0928911  
H        H      0.059100000000     0.023000000000     0.744100000000     0.0928911  
H        H      0.715800000000     0.066400000000     0.167100000000     0.0928911  
H        H      0.694700000000     0.157100000000     0.264900000000     0.0928911  
H        H      0.067700000000     0.034200000000     0.228400000000     0.0928911  
C        C      0.401200000000     0.455890000000     0.200380000000     0.0875598  
C        C      0.297600000000     0.409200000000     0.201780000000     0.0875598  
C        C      0.282800000000     0.352390000000     0.258370000000     0.0875598  
C        C      0.374900000000     0.340620000000     0.314520000000     0.0875598  
C        C      0.478500000000     0.387800000000     0.313790000000     0.0875598  
C        C      0.489900000000     0.445260000000     0.256340000000     0.0875598  
C        C      0.414100000000     0.519450000000     0.140820000000     0.0875598  
C        C      0.348900000000     0.276180000000     0.371460000000     0.0875598  
C        C      0.577100000000     0.379300000000     0.374200000000     0.0875598  
C        C      0.395200000000     0.459820000000     0.811590000000     0.0875598  
C        C      0.282000000000     0.421740000000     0.801000000000     0.0875598  
C        C      0.270100000000     0.366920000000     0.742990000000     0.0875598  
C        C      0.368500000000     0.346830000000     0.695980000000     0.0875598  
C        C      0.481800000000     0.384480000000     0.706920000000     0.0875598  
C        C      0.493100000000     0.440650000000     0.764570000000     0.0875598  
C        C      0.408700000000     0.521090000000     0.873160000000     0.0875598  
C        C      0.353600000000     0.282960000000     0.637410000000     0.0875598  
C        C      0.590100000000     0.368080000000     0.655470000000     0.0875598  
C        C      0.098800000000     0.544110000000     0.700380000000     0.0875598  
C        C      0.202400000000     0.590800000000     0.701780000000     0.0875598  
C        C      0.217200000000     0.647610000000     0.758370000000     0.0875598  
C        C      0.125100000000     0.659380000000     0.814520000000     0.0875598  
C        C      0.021500000000     0.612200000000     0.813790000000     0.0875598  
C        C      0.010100000000     0.554740000000     0.756340000000     0.0875598  
C        C      0.085900000000     0.480550000000     0.640820000000     0.0875598  
C        C      0.151100000000     0.723820000000     0.871460000000     0.0875598  
C        C      0.922900000000     0.620700000000     0.874200000000     0.0875598  
C        C      0.104800000000     0.540180000000     0.311590000000     0.0875598  
C        C      0.218000000000     0.578260000000     0.301000000000     0.0875598  
C        C      0.229900000000     0.633080000000     0.242990000000     0.0875598  
C        C      0.131500000000     0.653170000000     0.195980000000     0.0875598  
C        C      0.018200000000     0.615520000000     0.206920000000     0.0875598  
C        C      0.006900000000     0.559350000000     0.264570000000     0.0875598  
C        C      0.091300000000     0.478910000000     0.373160000000     0.0875598  
C        C      0.146400000000     0.717040000000     0.137410000000     0.0875598  
C        C      0.909900000000     0.631920000000     0.155470000000     0.0875598  
C        C      0.598800000000     0.955890000000     0.299620000000     0.0875598  
C        C      0.702400000000     0.909200000000     0.298220000000     0.0875598  
C        C      0.717200000000     0.852390000000     0.241630000000     0.0875598  
C        C      0.625100000000     0.840620000000     0.185480000000     0.0875598  
C        C      0.521500000000     0.887800000000     0.186210000000     0.0875598  
C        C      0.510100000000     0.945260000000     0.243660000000     0.0875598  
C        C      0.585900000000     0.019450000000     0.359180000000     0.0875598  
C        C      0.651100000000     0.776180000000     0.128540000000     0.0875598  
C        C      0.422900000000     0.879300000000     0.125800000000     0.0875598  
C        C      0.604800000000     0.959820000000     0.688410000000     0.0875598  
C        C      0.718000000000     0.921740000000     0.699000000000     0.0875598  
C        C      0.729900000000     0.866920000000     0.757010000000     0.0875598  
C        C      0.631500000000     0.846830000000     0.804020000000     0.0875598  
C        C      0.518200000000     0.884480000000     0.793080000000     0.0875598  
C        C      0.506900000000     0.940650000000     0.735430000000     0.0875598  
C        C      0.591300000000     0.021090000000     0.626840000000     0.0875598  
C        C      0.646400000000     0.782960000000     0.862590000000     0.0875598  
C        C      0.409900000000     0.868080000000     0.844530000000     0.0875598  
C        C      0.901200000000     0.044110000000     0.799620000000     0.0875598  
C        C      0.797600000000     0.090800000000     0.798220000000     0.0875598  
C        C      0.782800000000     0.147610000000     0.741630000000     0.0875598  
C        C      0.874900000000     0.159380000000     0.685480000000     0.0875598  
C        C      0.978500000000     0.112200000000     0.686210000000     0.0875598  
C        C      0.989900000000     0.054740000000     0.743660000000     0.0875598  
C        C      0.914100000000     0.980550000000     0.859180000000     0.0875598  
C        C      0.848900000000     0.223820000000     0.628540000000     0.0875598  
C        C      0.077100000000     0.120700000000     0.625800000000     0.0875598  
C        C      0.895200000000     0.040180000000     0.188410000000     0.0875598  
C        C      0.782000000000     0.078260000000     0.199000000000     0.0875598  
C        C      0.770100000000     0.133080000000     0.257010000000     0.0875598  
C        C      0.868500000000     0.153170000000     0.304020000000     0.0875598  
C        C      0.981800000000     0.115520000000     0.293080000000     0.0875598  
C        C      0.993100000000     0.059350000000     0.235430000000     0.0875598  
C        C      0.908700000000     0.978910000000     0.126840000000     0.0875598  
C        C      0.853600000000     0.217040000000     0.362590000000     0.0875598  
C        C      0.090100000000     0.131920000000     0.344530000000     0.0875598  
O        O      0.503100000000     0.566230000000     0.146880000000    -0.300559   
O        O      0.332500000000     0.523350000000     0.089610000000    -0.300559   
O        O      0.398000000000     0.211060000000     0.359660000000    -0.300559   
O        O      0.271890000000     0.290890000000     0.423940000000    -0.300559   
O        O      0.666600000000     0.424000000000     0.373100000000    -0.300559   
O        O      0.561510000000     0.328240000000     0.424360000000    -0.300559   
O        O      0.510110000000     0.555560000000     0.875380000000    -0.300559   
O        O      0.319270000000     0.534720000000     0.916660000000    -0.300559   
O        O      0.413630000000     0.220690000000     0.651120000000    -0.300559   
O        O      0.280220000000     0.292230000000     0.582490000000    -0.300559   
O        O      0.694180000000     0.386480000000     0.682000000000    -0.300559   
O        O      0.572150000000     0.337400000000     0.590550000000    -0.300559   
O        O      0.071180000000     0.319760000000     0.506480000000    -0.300559   
O        O      0.301630000000     0.125900000000     0.500590000000    -0.300559   
O        O      0.996900000000     0.433770000000     0.646880000000    -0.300559   
O        O      0.167500000000     0.476650000000     0.589610000000    -0.300559   
O        O      0.102000000000     0.788940000000     0.859660000000    -0.300559   
O        O      0.228110000000     0.709110000000     0.923940000000    -0.300559   
O        O      0.833400000000     0.576000000000     0.873100000000    -0.300559   
O        O      0.938490000000     0.671760000000     0.924360000000    -0.300559   
O        O      0.989890000000     0.444440000000     0.375380000000    -0.300559   
O        O      0.180730000000     0.465280000000     0.416660000000    -0.300559   
O        O      0.086370000000     0.779310000000     0.151120000000    -0.300559   
O        O      0.219780000000     0.707770000000     0.082490000000    -0.300559   
O        O      0.805820000000     0.613520000000     0.182000000000    -0.300559   
O        O      0.927850000000     0.662600000000     0.090550000000    -0.300559   
O        O      0.428820000000     0.680240000000     0.006480000000    -0.300559   
O        O      0.198370000000     0.874100000000     0.000590000000    -0.300559   
O        O      0.496900000000     0.066230000000     0.353120000000    -0.300559   
O        O      0.667500000000     0.023350000000     0.410390000000    -0.300559   
O        O      0.602000000000     0.711060000000     0.140340000000    -0.300559   
O        O      0.728110000000     0.790890000000     0.076060000000    -0.300559   
O        O      0.333400000000     0.924000000000     0.126900000000    -0.300559   
O        O      0.438490000000     0.828240000000     0.075640000000    -0.300559   
O        O      0.489890000000     0.055560000000     0.624620000000    -0.300559   
O        O      0.680730000000     0.034720000000     0.583340000000    -0.300559   
O        O      0.586370000000     0.720690000000     0.848880000000    -0.300559   
O        O      0.719780000000     0.792230000000     0.917510000000    -0.300559   
O        O      0.305820000000     0.886480000000     0.818000000000    -0.300559   
O        O      0.427850000000     0.837400000000     0.909450000000    -0.300559   
O        O      0.928820000000     0.819760000000     0.993520000000    -0.300559   
O        O      0.698370000000     0.625900000000     0.999410000000    -0.300559   
O        O      0.003100000000     0.933770000000     0.853120000000    -0.300559   
O        O      0.832500000000     0.976650000000     0.910390000000    -0.300559   
O        O      0.898000000000     0.288940000000     0.640340000000    -0.300559   
O        O      0.771890000000     0.209110000000     0.576060000000    -0.300559   
O        O      0.166600000000     0.076000000000     0.626900000000    -0.300559   
O        O      0.061510000000     0.171760000000     0.575640000000    -0.300559   
O        O      0.010110000000     0.944440000000     0.124620000000    -0.300559   
O        O      0.819270000000     0.965280000000     0.083340000000    -0.300559   
O        O      0.913630000000     0.279310000000     0.348880000000    -0.300559   
O        O      0.780220000000     0.207770000000     0.417510000000    -0.300559   
O        O      0.194180000000     0.113520000000     0.318000000000    -0.300559   
O        O      0.072150000000     0.162600000000     0.409450000000    -0.300559   
O        O      0.571180000000     0.180240000000     0.493520000000    -0.300559   
O        O      0.801630000000     0.374100000000     0.499410000000    -0.300559   


