data_FANWOI_original

_audit_creation_method RASPA-1.0
_audit_creation_date 2022-1-30
_audit_author_name 'Felipe Lopes de Oliveira <felipe.lopes.oliveira@ibm.com>'

_cell_length_a    17.8208
_cell_length_b    19.2401
_cell_length_c    19.2401
_cell_angle_alpha 120
_cell_angle_beta  90
_cell_angle_gamma 90
_cell_volume      5713.11

_symmetry_cell_setting          triclinic
_symmetry_space_group_name_Hall 'P 1'
_symmetry_space_group_name_H-M  'P 1'
_symmetry_Int_Tables_number     1

_symmetry_equiv_pos_as_xyz 'x,y,z'

loop_
_atom_site_label
_atom_site_type_symbol
_atom_site_fract_x
_atom_site_fract_y
_atom_site_fract_z
_atom_site_charge
Zn       Zn     0.600080000000     0.666700000000     0.333300000000     0.446055   
Zn       Zn     0.100080000000     0.333300000000     0.666700000000     0.446055   
Zn       Zn     0.965170000000     0.292230000000     0.552720000000     0.446055   
Zn       Zn     0.965170000000     0.447280000000     0.739510000000     0.446055   
Zn       Zn     0.465170000000     0.552720000000     0.292230000000     0.446055   
Zn       Zn     0.965170000000     0.260490000000     0.707770000000     0.446055   
Zn       Zn     0.465170000000     0.707770000000     0.260490000000     0.446055   
Zn       Zn     0.465170000000     0.739510000000     0.447280000000     0.446055   
H        H      0.738800000000     0.574500000000     0.432100000000     0.111528   
H        H      0.738800000000     0.567900000000     0.142400000000     0.111528   
H        H      0.238800000000     0.432100000000     0.574500000000     0.111528   
H        H      0.738800000000     0.857600000000     0.425500000000     0.111528   
H        H      0.238800000000     0.425500000000     0.857600000000     0.111528   
H        H      0.238800000000     0.142400000000     0.567900000000     0.111528   
H        H      0.809000000000     0.526600000000     0.500900000000     0.111528   
H        H      0.809000000000     0.499100000000     0.025700000000     0.111528   
H        H      0.309000000000     0.500900000000     0.526600000000     0.111528   
H        H      0.809000000000     0.974300000000     0.473400000000     0.111528   
H        H      0.309000000000     0.473400000000     0.974300000000     0.111528   
H        H      0.309000000000     0.025700000000     0.499100000000     0.111528   
H        H      0.643900000000     0.368200000000     0.468400000000     0.111528   
H        H      0.643900000000     0.531600000000     0.899800000000     0.111528   
H        H      0.143900000000     0.468400000000     0.368200000000     0.111528   
H        H      0.643900000000     0.100200000000     0.631800000000     0.111528   
H        H      0.143900000000     0.631800000000     0.100200000000     0.111528   
H        H      0.143900000000     0.899800000000     0.531600000000     0.111528   
H        H      0.574500000000     0.415600000000     0.396300000000     0.111528   
H        H      0.574500000000     0.603700000000     0.019300000000     0.111528   
H        H      0.074500000000     0.396300000000     0.415600000000     0.111528   
H        H      0.574500000000     0.980700000000     0.584400000000     0.111528   
H        H      0.074500000000     0.584400000000     0.980700000000     0.111528   
H        H      0.074500000000     0.019300000000     0.603700000000     0.111528   
H        H      0.905500000000     0.291300000000     0.400100000000     0.111528   
H        H      0.905500000000     0.599900000000     0.891200000000     0.111528   
H        H      0.405500000000     0.400100000000     0.291300000000     0.111528   
H        H      0.905500000000     0.108800000000     0.708700000000     0.111528   
H        H      0.405500000000     0.708700000000     0.108800000000     0.111528   
H        H      0.405500000000     0.891200000000     0.599900000000     0.111528   
H        H      0.876600000000     0.369900000000     0.399700000000     0.111528   
H        H      0.876600000000     0.600300000000     0.970200000000     0.111528   
H        H      0.376600000000     0.399700000000     0.369900000000     0.111528   
H        H      0.876600000000     0.029800000000     0.630100000000     0.111528   
H        H      0.376600000000     0.630100000000     0.029800000000     0.111528   
H        H      0.376600000000     0.970200000000     0.600300000000     0.111528   
H        H      0.820400000000     0.296500000000     0.376500000000     0.111528   
H        H      0.820400000000     0.623500000000     0.920000000000     0.111528   
H        H      0.320400000000     0.376500000000     0.296500000000     0.111528   
H        H      0.820400000000     0.080000000000     0.703500000000     0.111528   
H        H      0.320400000000     0.703500000000     0.080000000000     0.111528   
H        H      0.320400000000     0.920000000000     0.623500000000     0.111528   
H        H      0.406800000000     0.734100000000     0.707800000000     0.111528   
H        H      0.406800000000     0.292200000000     0.026300000000     0.111528   
H        H      0.906800000000     0.707800000000     0.734100000000     0.111528   
H        H      0.406800000000     0.973700000000     0.265900000000     0.111528   
H        H      0.906800000000     0.265900000000     0.973700000000     0.111528   
H        H      0.906800000000     0.026300000000     0.292200000000     0.111528   
H        H      0.409500000000     0.657000000000     0.771400000000     0.111528   
H        H      0.409500000000     0.228600000000     0.885600000000     0.111528   
H        H      0.909500000000     0.771400000000     0.657000000000     0.111528   
H        H      0.409500000000     0.114400000000     0.343000000000     0.111528   
H        H      0.909500000000     0.343000000000     0.114400000000     0.111528   
H        H      0.909500000000     0.885600000000     0.228600000000     0.111528   
H        H      0.504500000000     0.472500000000     0.572900000000     0.111528   
H        H      0.504500000000     0.427100000000     0.899600000000     0.111528   
H        H      0.004500000000     0.572900000000     0.472500000000     0.111528   
H        H      0.504500000000     0.100400000000     0.527500000000     0.111528   
H        H      0.004500000000     0.527500000000     0.100400000000     0.111528   
H        H      0.004500000000     0.899600000000     0.427100000000     0.111528   
H        H      0.503200000000     0.550900000000     0.510800000000     0.111528   
H        H      0.503200000000     0.489200000000     0.040100000000     0.111528   
H        H      0.003200000000     0.510800000000     0.550900000000     0.111528   
H        H      0.503200000000     0.959900000000     0.449100000000     0.111528   
H        H      0.003200000000     0.449100000000     0.959900000000     0.111528   
H        H      0.003200000000     0.040100000000     0.489200000000     0.111528   
H        H      0.296800000000     0.447000000000     0.736200000000     0.111528   
H        H      0.296800000000     0.263800000000     0.710800000000     0.111528   
H        H      0.796800000000     0.736200000000     0.447000000000     0.111528   
H        H      0.296800000000     0.289200000000     0.553000000000     0.111528   
H        H      0.796800000000     0.553000000000     0.289200000000     0.111528   
H        H      0.796800000000     0.710800000000     0.263800000000     0.111528   
H        H      0.319800000000     0.465800000000     0.666800000000     0.111528   
H        H      0.319800000000     0.333200000000     0.799000000000     0.111528   
H        H      0.819800000000     0.666800000000     0.465800000000     0.111528   
H        H      0.319800000000     0.201000000000     0.534200000000     0.111528   
H        H      0.819800000000     0.534200000000     0.201000000000     0.111528   
H        H      0.819800000000     0.799000000000     0.333200000000     0.111528   
H        H      0.306900000000     0.537900000000     0.756500000000     0.111528   
H        H      0.306900000000     0.243500000000     0.781400000000     0.111528   
H        H      0.806900000000     0.756500000000     0.537900000000     0.111528   
H        H      0.306900000000     0.218600000000     0.462100000000     0.111528   
H        H      0.806900000000     0.462100000000     0.218600000000     0.111528   
H        H      0.806900000000     0.781400000000     0.243500000000     0.111528   
H        H      0.591100000000     0.635400000000     0.824000000000     0.111528   
H        H      0.591100000000     0.176000000000     0.811400000000     0.111528   
H        H      0.091100000000     0.824000000000     0.635400000000     0.111528   
H        H      0.591100000000     0.188600000000     0.364600000000     0.111528   
H        H      0.091100000000     0.364600000000     0.188600000000     0.111528   
H        H      0.091100000000     0.811400000000     0.176000000000     0.111528   
H        H      0.711900000000     0.676800000000     0.817200000000     0.111528   
H        H      0.711900000000     0.182800000000     0.859600000000     0.111528   
H        H      0.211900000000     0.817200000000     0.676800000000     0.111528   
H        H      0.711900000000     0.140400000000     0.323200000000     0.111528   
H        H      0.211900000000     0.323200000000     0.140400000000     0.111528   
H        H      0.211900000000     0.859600000000     0.182800000000     0.111528   
H        H      0.797100000000     0.587700000000     0.720900000000     0.111528   
H        H      0.797100000000     0.279100000000     0.866800000000     0.111528   
H        H      0.297100000000     0.720900000000     0.587700000000     0.111528   
H        H      0.797100000000     0.133200000000     0.412300000000     0.111528   
H        H      0.297100000000     0.412300000000     0.133200000000     0.111528   
H        H      0.297100000000     0.866800000000     0.279100000000     0.111528   
H        H      0.640500000000     0.411800000000     0.643600000000     0.111528   
H        H      0.640500000000     0.356400000000     0.768200000000     0.111528   
H        H      0.140500000000     0.643600000000     0.411800000000     0.111528   
H        H      0.640500000000     0.231800000000     0.588200000000     0.111528   
H        H      0.140500000000     0.588200000000     0.231800000000     0.111528   
H        H      0.140500000000     0.768200000000     0.356400000000     0.111528   
C        C      0.606890000000     0.531930000000     0.362120000000    -0.0152958  
C        C      0.606890000000     0.637880000000     0.169810000000    -0.0152958  
C        C      0.106890000000     0.362120000000     0.531930000000    -0.0152958  
C        C      0.606890000000     0.830190000000     0.468070000000    -0.0152958  
C        C      0.106890000000     0.468070000000     0.830190000000    -0.0152958  
C        C      0.106890000000     0.169810000000     0.637880000000    -0.0152958  
C        C      0.650050000000     0.499240000000     0.406900000000    -0.0152958  
C        C      0.650050000000     0.593100000000     0.092340000000    -0.0152958  
C        C      0.150050000000     0.406900000000     0.499240000000    -0.0152958  
C        C      0.650050000000     0.907660000000     0.500760000000    -0.0152958  
C        C      0.150050000000     0.500760000000     0.907660000000    -0.0152958  
C        C      0.150050000000     0.092340000000     0.593100000000    -0.0152958  
C        C      0.719600000000     0.532200000000     0.438900000000    -0.0152958  
C        C      0.719600000000     0.561100000000     0.093300000000    -0.0152958  
C        C      0.219600000000     0.438900000000     0.532200000000    -0.0152958  
C        C      0.719600000000     0.906700000000     0.467800000000    -0.0152958  
C        C      0.219600000000     0.467800000000     0.906700000000    -0.0152958  
C        C      0.219600000000     0.093300000000     0.561100000000    -0.0152958  
C        C      0.761100000000     0.504300000000     0.480200000000    -0.0152958  
C        C      0.761100000000     0.519800000000     0.024100000000    -0.0152958  
C        C      0.261100000000     0.480200000000     0.504300000000    -0.0152958  
C        C      0.761100000000     0.975900000000     0.495700000000    -0.0152958  
C        C      0.261100000000     0.495700000000     0.975900000000    -0.0152958  
C        C      0.261100000000     0.024100000000     0.519800000000    -0.0152958  
C        C      0.732390000000     0.443350000000     0.491600000000    -0.0152958  
C        C      0.732390000000     0.508400000000     0.951750000000    -0.0152958  
C        C      0.232390000000     0.491600000000     0.443350000000    -0.0152958  
C        C      0.732390000000     0.048250000000     0.556650000000    -0.0152958  
C        C      0.232390000000     0.556650000000     0.048250000000    -0.0152958  
C        C      0.232390000000     0.951750000000     0.508400000000    -0.0152958  
C        C      0.663350000000     0.409900000000     0.460800000000    -0.0152958  
C        C      0.663350000000     0.539200000000     0.949100000000    -0.0152958  
C        C      0.163350000000     0.460800000000     0.409900000000    -0.0152958  
C        C      0.663350000000     0.050900000000     0.590100000000    -0.0152958  
C        C      0.163350000000     0.590100000000     0.050900000000    -0.0152958  
C        C      0.163350000000     0.949100000000     0.539200000000    -0.0152958  
C        C      0.622120000000     0.438400000000     0.418000000000    -0.0152958  
C        C      0.622120000000     0.582000000000     0.020400000000    -0.0152958  
C        C      0.122120000000     0.418000000000     0.438400000000    -0.0152958  
C        C      0.622120000000     0.979600000000     0.561600000000    -0.0152958  
C        C      0.122120000000     0.561600000000     0.979600000000    -0.0152958  
C        C      0.122120000000     0.020400000000     0.582000000000    -0.0152958  
C        C      0.862600000000     0.327200000000     0.410900000000    -0.0152958  
C        C      0.862600000000     0.589100000000     0.916300000000    -0.0152958  
C        C      0.362600000000     0.410900000000     0.327200000000    -0.0152958  
C        C      0.862600000000     0.083700000000     0.672800000000    -0.0152958  
C        C      0.362600000000     0.672800000000     0.083700000000    -0.0152958  
C        C      0.362600000000     0.916300000000     0.589100000000    -0.0152958  
C        C      0.840220000000     0.363270000000     0.496600000000    -0.0152958  
C        C      0.840220000000     0.503400000000     0.866670000000    -0.0152958  
C        C      0.340220000000     0.496600000000     0.363270000000    -0.0152958  
C        C      0.840220000000     0.133330000000     0.636730000000    -0.0152958  
C        C      0.340220000000     0.636730000000     0.133330000000    -0.0152958  
C        C      0.340220000000     0.866670000000     0.503400000000    -0.0152958  
C        C      0.781470000000     0.435250000000     0.611960000000    -0.0152958  
C        C      0.781470000000     0.388040000000     0.823290000000    -0.0152958  
C        C      0.281470000000     0.611960000000     0.435250000000    -0.0152958  
C        C      0.781470000000     0.176710000000     0.564750000000    -0.0152958  
C        C      0.281470000000     0.564750000000     0.176710000000    -0.0152958  
C        C      0.281470000000     0.823290000000     0.388040000000    -0.0152958  
C        C      0.456540000000     0.702960000000     0.564460000000    -0.0152958  
C        C      0.456540000000     0.435540000000     0.138500000000    -0.0152958  
C        C      0.956540000000     0.564460000000     0.702960000000    -0.0152958  
C        C      0.456540000000     0.861500000000     0.297040000000    -0.0152958  
C        C      0.956540000000     0.297040000000     0.861500000000    -0.0152958  
C        C      0.956540000000     0.138500000000     0.435540000000    -0.0152958  
C        C      0.457070000000     0.651290000000     0.603700000000    -0.0152958  
C        C      0.457070000000     0.396300000000     0.047590000000    -0.0152958  
C        C      0.957070000000     0.603700000000     0.651290000000    -0.0152958  
C        C      0.457070000000     0.952410000000     0.348710000000    -0.0152958  
C        C      0.957070000000     0.348710000000     0.952410000000    -0.0152958  
C        C      0.957070000000     0.047590000000     0.396300000000    -0.0152958  
C        C      0.427700000000     0.681700000000     0.680800000000    -0.0152958  
C        C      0.427700000000     0.319200000000     0.000900000000    -0.0152958  
C        C      0.927700000000     0.680800000000     0.681700000000    -0.0152958  
C        C      0.427700000000     0.999100000000     0.318300000000    -0.0152958  
C        C      0.927700000000     0.318300000000     0.999100000000    -0.0152958  
C        C      0.927700000000     0.000900000000     0.319200000000    -0.0152958  
C        C      0.428900000000     0.635600000000     0.718600000000    -0.0152958  
C        C      0.428900000000     0.281400000000     0.917000000000    -0.0152958  
C        C      0.928900000000     0.718600000000     0.635600000000    -0.0152958  
C        C      0.428900000000     0.083000000000     0.364400000000    -0.0152958  
C        C      0.928900000000     0.364400000000     0.083000000000    -0.0152958  
C        C      0.928900000000     0.917000000000     0.281400000000    -0.0152958  
C        C      0.458490000000     0.558940000000     0.678890000000    -0.0152958  
C        C      0.458490000000     0.321110000000     0.880050000000    -0.0152958  
C        C      0.958490000000     0.678890000000     0.558940000000    -0.0152958  
C        C      0.458490000000     0.119950000000     0.441060000000    -0.0152958  
C        C      0.958490000000     0.441060000000     0.119950000000    -0.0152958  
C        C      0.958490000000     0.880050000000     0.321110000000    -0.0152958  
C        C      0.485670000000     0.525870000000     0.600650000000    -0.0152958  
C        C      0.485670000000     0.399350000000     0.925220000000    -0.0152958  
C        C      0.985670000000     0.600650000000     0.525870000000    -0.0152958  
C        C      0.485670000000     0.074780000000     0.474130000000    -0.0152958  
C        C      0.985670000000     0.474130000000     0.074780000000    -0.0152958  
C        C      0.985670000000     0.925220000000     0.399350000000    -0.0152958  
C        C      0.484650000000     0.572880000000     0.563960000000    -0.0152958  
C        C      0.484650000000     0.436040000000     0.008920000000    -0.0152958  
C        C      0.984650000000     0.563960000000     0.572880000000    -0.0152958  
C        C      0.484650000000     0.991080000000     0.427120000000    -0.0152958  
C        C      0.984650000000     0.427120000000     0.991080000000    -0.0152958  
C        C      0.984650000000     0.008920000000     0.436040000000    -0.0152958  
C        C      0.325500000000     0.482900000000     0.723800000000    -0.0152958  
C        C      0.325500000000     0.276200000000     0.759100000000    -0.0152958  
C        C      0.825500000000     0.723800000000     0.482900000000    -0.0152958  
C        C      0.325500000000     0.240900000000     0.517100000000    -0.0152958  
C        C      0.825500000000     0.517100000000     0.240900000000    -0.0152958  
C        C      0.825500000000     0.759100000000     0.276200000000    -0.0152958  
C        C      0.406240000000     0.479800000000     0.741970000000    -0.0152958  
C        C      0.406240000000     0.258030000000     0.737830000000    -0.0152958  
C        C      0.906240000000     0.741970000000     0.479800000000    -0.0152958  
C        C      0.406240000000     0.262170000000     0.520200000000    -0.0152958  
C        C      0.906240000000     0.520200000000     0.262170000000    -0.0152958  
C        C      0.906240000000     0.737830000000     0.258030000000    -0.0152958  
C        C      0.528350000000     0.493130000000     0.744940000000    -0.0152958  
C        C      0.528350000000     0.255060000000     0.748190000000    -0.0152958  
C        C      0.028350000000     0.744940000000     0.493130000000    -0.0152958  
C        C      0.528350000000     0.251810000000     0.506870000000    -0.0152958  
C        C      0.028350000000     0.506870000000     0.251810000000    -0.0152958  
C        C      0.028350000000     0.748190000000     0.255060000000    -0.0152958  
C        C      0.604230000000     0.519510000000     0.735800000000    -0.0152958  
C        C      0.604230000000     0.264200000000     0.783710000000    -0.0152958  
C        C      0.104230000000     0.735800000000     0.519510000000    -0.0152958  
C        C      0.604230000000     0.216290000000     0.480490000000    -0.0152958  
C        C      0.104230000000     0.480490000000     0.216290000000    -0.0152958  
C        C      0.104230000000     0.783710000000     0.264200000000    -0.0152958  
C        C      0.625700000000     0.598200000000     0.786100000000    -0.0152958  
C        C      0.625700000000     0.213900000000     0.812100000000    -0.0152958  
C        C      0.125700000000     0.786100000000     0.598200000000    -0.0152958  
C        C      0.625700000000     0.187900000000     0.401800000000    -0.0152958  
C        C      0.125700000000     0.401800000000     0.187900000000    -0.0152958  
C        C      0.125700000000     0.812100000000     0.213900000000    -0.0152958  
C        C      0.697200000000     0.623000000000     0.781300000000    -0.0152958  
C        C      0.697200000000     0.218700000000     0.841700000000    -0.0152958  
C        C      0.197200000000     0.781300000000     0.623000000000    -0.0152958  
C        C      0.697200000000     0.158300000000     0.377000000000    -0.0152958  
C        C      0.197200000000     0.377000000000     0.158300000000    -0.0152958  
C        C      0.197200000000     0.841700000000     0.218700000000    -0.0152958  
C        C      0.748100000000     0.570000000000     0.724200000000    -0.0152958  
C        C      0.748100000000     0.275800000000     0.845800000000    -0.0152958  
C        C      0.248100000000     0.724200000000     0.570000000000    -0.0152958  
C        C      0.748100000000     0.154200000000     0.430000000000    -0.0152958  
C        C      0.248100000000     0.430000000000     0.154200000000    -0.0152958  
C        C      0.248100000000     0.845800000000     0.275800000000    -0.0152958  
C        C      0.726710000000     0.491180000000     0.672310000000    -0.0152958  
C        C      0.726710000000     0.327690000000     0.818870000000    -0.0152958  
C        C      0.226710000000     0.672310000000     0.491180000000    -0.0152958  
C        C      0.726710000000     0.181130000000     0.508820000000    -0.0152958  
C        C      0.226710000000     0.508820000000     0.181130000000    -0.0152958  
C        C      0.226710000000     0.818870000000     0.327690000000    -0.0152958  
C        C      0.655030000000     0.465920000000     0.678530000000    -0.0152958  
C        C      0.655030000000     0.321470000000     0.787390000000    -0.0152958  
C        C      0.155030000000     0.678530000000     0.465920000000    -0.0152958  
C        C      0.655030000000     0.212610000000     0.534080000000    -0.0152958  
C        C      0.155030000000     0.534080000000     0.212610000000    -0.0152958  
C        C      0.155030000000     0.787390000000     0.321470000000    -0.0152958  
N        N      0.874710000000     0.355760000000     0.552400000000    -0.148571   
N        N      0.874710000000     0.447600000000     0.803360000000    -0.148571   
N        N      0.374710000000     0.552400000000     0.355760000000    -0.148571   
N        N      0.874710000000     0.196640000000     0.644240000000    -0.148571   
N        N      0.374710000000     0.644240000000     0.196640000000    -0.148571   
N        N      0.374710000000     0.803360000000     0.447600000000    -0.148571   
N        N      0.838690000000     0.401610000000     0.625910000000    -0.148571   
N        N      0.838690000000     0.374090000000     0.775700000000    -0.148571   
N        N      0.338690000000     0.625910000000     0.401610000000    -0.148571   
N        N      0.838690000000     0.224300000000     0.598390000000    -0.148571   
N        N      0.338690000000     0.598390000000     0.224300000000    -0.148571   
N        N      0.338690000000     0.775700000000     0.374090000000    -0.148571   
N        N      0.779270000000     0.412260000000     0.531010000000    -0.148571   
N        N      0.779270000000     0.468990000000     0.881250000000    -0.148571   
N        N      0.279270000000     0.531010000000     0.412260000000    -0.148571   
N        N      0.779270000000     0.118750000000     0.587740000000    -0.148571   
N        N      0.279270000000     0.587740000000     0.118750000000    -0.148571   
N        N      0.279270000000     0.881250000000     0.468990000000    -0.148571   
N        N      0.433950000000     0.443300000000     0.778970000000    -0.148571   
N        N      0.433950000000     0.221030000000     0.664330000000    -0.148571   
N        N      0.933950000000     0.778970000000     0.443300000000    -0.148571   
N        N      0.433950000000     0.335670000000     0.556700000000    -0.148571   
N        N      0.933950000000     0.556700000000     0.335670000000    -0.148571   
N        N      0.933950000000     0.664330000000     0.221030000000    -0.148571   
N        N      0.512800000000     0.451780000000     0.780200000000    -0.148571   
N        N      0.512800000000     0.219800000000     0.671580000000    -0.148571   
N        N      0.012800000000     0.780200000000     0.451780000000    -0.148571   
N        N      0.512800000000     0.328420000000     0.548220000000    -0.148571   
N        N      0.012800000000     0.548220000000     0.328420000000    -0.148571   
N        N      0.012800000000     0.671580000000     0.219800000000    -0.148571   
N        N      0.463750000000     0.513290000000     0.719790000000    -0.148571   
N        N      0.463750000000     0.280210000000     0.793500000000    -0.148571   
N        N      0.963750000000     0.719790000000     0.513290000000    -0.148571   
N        N      0.463750000000     0.206500000000     0.486710000000    -0.148571   
N        N      0.963750000000     0.486710000000     0.206500000000    -0.148571   
N        N      0.963750000000     0.793500000000     0.280210000000    -0.148571   
O        O      0.492180000000     0.666700000000     0.333300000000    -0.30303    
O        O      0.992180000000     0.333300000000     0.666700000000    -0.30303    
O        O      0.642040000000     0.582910000000     0.350580000000    -0.30303    
O        O      0.642040000000     0.649420000000     0.232330000000    -0.30303    
O        O      0.142040000000     0.350580000000     0.582910000000    -0.30303    
O        O      0.642040000000     0.767670000000     0.417090000000    -0.30303    
O        O      0.142040000000     0.417090000000     0.767670000000    -0.30303    
O        O      0.142040000000     0.232330000000     0.649420000000    -0.30303    
O        O      0.541420000000     0.507170000000     0.339150000000    -0.30303    
O        O      0.541420000000     0.660850000000     0.168020000000    -0.30303    
O        O      0.041420000000     0.339150000000     0.507170000000    -0.30303    
O        O      0.541420000000     0.831980000000     0.492830000000    -0.30303    
O        O      0.041420000000     0.492830000000     0.831980000000    -0.30303    
O        O      0.041420000000     0.168020000000     0.660850000000    -0.30303    
O        O      0.488020000000     0.672730000000     0.495710000000    -0.30303    
O        O      0.488020000000     0.504290000000     0.177020000000    -0.30303    
O        O      0.988020000000     0.495710000000     0.672730000000    -0.30303    
O        O      0.488020000000     0.822980000000     0.327270000000    -0.30303    
O        O      0.988020000000     0.327270000000     0.822980000000    -0.30303    
O        O      0.988020000000     0.177020000000     0.504290000000    -0.30303    
O        O      0.425590000000     0.769420000000     0.598870000000    -0.30303    
O        O      0.425590000000     0.401130000000     0.170550000000    -0.30303    
O        O      0.925590000000     0.598870000000     0.769420000000    -0.30303    
O        O      0.425590000000     0.829450000000     0.230580000000    -0.30303    
O        O      0.925590000000     0.230580000000     0.829450000000    -0.30303    
O        O      0.925590000000     0.170550000000     0.401130000000    -0.30303    


