data_FAQVEA_original

_audit_creation_method RASPA-1.0
_audit_creation_date 2022-1-29
_audit_author_name 'Felipe Lopes de Oliveira <felipe.lopes.oliveira@ibm.com>'

_cell_length_a    9.7748
_cell_length_b    11.9795
_cell_length_c    11.9795
_cell_angle_alpha 90.3078
_cell_angle_beta  110.049
_cell_angle_gamma 110.049
_cell_volume      1225.84

_symmetry_cell_setting          triclinic
_symmetry_space_group_name_Hall 'P 1'
_symmetry_space_group_name_H-M  'P 1'
_symmetry_Int_Tables_number     1

_symmetry_equiv_pos_as_xyz 'x,y,z'

loop_
_atom_site_label
_atom_site_type_symbol
_atom_site_fract_x
_atom_site_fract_y
_atom_site_fract_z
_atom_site_charge
Zn       Zn     0.846530000000     0.159220000000     0.374060000000     0.390841   
Zn       Zn     0.346530000000     0.374060000000     0.159220000000     0.390841   
Zn       Zn     0.653470000000     0.625940000000     0.840780000000     0.390841   
Zn       Zn     0.153470000000     0.840780000000     0.625940000000     0.390841   
H        H      0.199400000000     0.473400000000     0.744600000000     0.170481   
H        H      0.993100000000     0.126100000000     0.760900000000     0.170481   
H        H      0.322600000000     0.503800000000     0.949000000000     0.170481   
H        H      0.124700000000     0.164600000000     0.964800000000     0.170481   
H        H      0.202900000000     0.477700000000     0.344300000000     0.170481   
H        H      0.055400000000     0.448100000000     0.225900000000     0.170481   
H        H      0.034600000000     0.418800000000     0.347800000000     0.170481   
H        H      0.699400000000     0.744600000000     0.473400000000     0.170481   
H        H      0.493100000000     0.760900000000     0.126100000000     0.170481   
H        H      0.822600000000     0.949000000000     0.503800000000     0.170481   
H        H      0.624700000000     0.964800000000     0.164600000000     0.170481   
H        H      0.702900000000     0.344300000000     0.477700000000     0.170481   
H        H      0.555400000000     0.225900000000     0.448100000000     0.170481   
H        H      0.534600000000     0.347800000000     0.418800000000     0.170481   
H        H      0.300600000000     0.255400000000     0.526600000000     0.170481   
H        H      0.506900000000     0.239100000000     0.873900000000     0.170481   
H        H      0.177400000000     0.051000000000     0.496200000000     0.170481   
H        H      0.375300000000     0.035200000000     0.835400000000     0.170481   
H        H      0.297100000000     0.655700000000     0.522300000000     0.170481   
H        H      0.444600000000     0.774100000000     0.551900000000     0.170481   
H        H      0.465400000000     0.652200000000     0.581200000000     0.170481   
H        H      0.800600000000     0.526600000000     0.255400000000     0.170481   
H        H      0.006900000000     0.873900000000     0.239100000000     0.170481   
H        H      0.677400000000     0.496200000000     0.051000000000     0.170481   
H        H      0.875300000000     0.835400000000     0.035200000000     0.170481   
H        H      0.797100000000     0.522300000000     0.655700000000     0.170481   
H        H      0.944600000000     0.551900000000     0.774100000000     0.170481   
H        H      0.965400000000     0.581200000000     0.652200000000     0.170481   
C        C      0.000100000000     0.277100000000     0.596100000000    -0.0452016  
C        C      0.101700000000     0.302400000000     0.279800000000    -0.0452016  
C        C      0.081400000000     0.296500000000     0.730300000000    -0.0452016  
C        C      0.181800000000     0.409300000000     0.788100000000    -0.0452016  
C        C      0.059900000000     0.203600000000     0.797400000000    -0.0452016  
C        C      0.255900000000     0.426800000000     0.910600000000    -0.0452016  
C        C      0.139100000000     0.227800000000     0.919800000000    -0.0452016  
C        C      0.098300000000     0.422100000000     0.301300000000    -0.0452016  
C        C      0.500100000000     0.596100000000     0.277100000000    -0.0452016  
C        C      0.601700000000     0.279800000000     0.302400000000    -0.0452016  
C        C      0.581400000000     0.730300000000     0.296500000000    -0.0452016  
C        C      0.681800000000     0.788100000000     0.409300000000    -0.0452016  
C        C      0.559900000000     0.797400000000     0.203600000000    -0.0452016  
C        C      0.755900000000     0.910600000000     0.426800000000    -0.0452016  
C        C      0.639100000000     0.919800000000     0.227800000000    -0.0452016  
C        C      0.598300000000     0.301300000000     0.422100000000    -0.0452016  
C        C      0.499900000000     0.403900000000     0.722900000000    -0.0452016  
C        C      0.398300000000     0.720200000000     0.697600000000    -0.0452016  
C        C      0.418600000000     0.269700000000     0.703500000000    -0.0452016  
C        C      0.318200000000     0.211900000000     0.590700000000    -0.0452016  
C        C      0.440100000000     0.202600000000     0.796400000000    -0.0452016  
C        C      0.244100000000     0.089400000000     0.573200000000    -0.0452016  
C        C      0.360900000000     0.080200000000     0.772200000000    -0.0452016  
C        C      0.401700000000     0.698700000000     0.577900000000    -0.0452016  
C        C      0.999900000000     0.722900000000     0.403900000000    -0.0452016  
C        C      0.898300000000     0.697600000000     0.720200000000    -0.0452016  
C        C      0.918600000000     0.703500000000     0.269700000000    -0.0452016  
C        C      0.818200000000     0.590700000000     0.211900000000    -0.0452016  
C        C      0.940100000000     0.796400000000     0.202600000000    -0.0452016  
C        C      0.744100000000     0.573200000000     0.089400000000    -0.0452016  
C        C      0.860900000000     0.772200000000     0.080200000000    -0.0452016  
C        C      0.901700000000     0.577900000000     0.698700000000    -0.0452016  
N        N      0.015100000000     0.200380000000     0.305820000000    -0.126057   
N        N      0.235700000000     0.337190000000     0.976890000000    -0.126057   
N        N      0.054600000000     0.113000000000     0.270600000000    -0.126057   
N        N      0.193000000000     0.278650000000     0.229150000000    -0.126057   
N        N      0.160600000000     0.159200000000     0.225200000000    -0.126057   
N        N      0.515100000000     0.305820000000     0.200380000000    -0.126057   
N        N      0.735700000000     0.976890000000     0.337190000000    -0.126057   
N        N      0.554600000000     0.270600000000     0.113000000000    -0.126057   
N        N      0.693000000000     0.229150000000     0.278650000000    -0.126057   
N        N      0.660600000000     0.225200000000     0.159200000000    -0.126057   
N        N      0.484900000000     0.694180000000     0.799620000000    -0.126057   
N        N      0.264300000000     0.023110000000     0.662810000000    -0.126057   
N        N      0.445400000000     0.729400000000     0.887000000000    -0.126057   
N        N      0.307000000000     0.770850000000     0.721350000000    -0.126057   
N        N      0.339400000000     0.774800000000     0.840800000000    -0.126057   
N        N      0.984900000000     0.799620000000     0.694180000000    -0.126057   
N        N      0.764300000000     0.662810000000     0.023110000000    -0.126057   
N        N      0.945400000000     0.887000000000     0.729400000000    -0.126057   
N        N      0.807000000000     0.721350000000     0.770850000000    -0.126057   
N        N      0.839400000000     0.840800000000     0.774800000000    -0.126057   
O        O      0.910400000000     0.169930000000     0.548170000000    -0.296155   
O        O      0.020400000000     0.360890000000     0.538910000000    -0.296155   
O        O      0.410400000000     0.548170000000     0.169930000000    -0.296155   
O        O      0.520400000000     0.538910000000     0.360890000000    -0.296155   
O        O      0.589600000000     0.451830000000     0.830070000000    -0.296155   
O        O      0.479600000000     0.461090000000     0.639110000000    -0.296155   
O        O      0.089600000000     0.830070000000     0.451830000000    -0.296155   
O        O      0.979600000000     0.639110000000     0.461090000000    -0.296155   


