data_FAYKOH_original

_audit_creation_method RASPA-1.0
_audit_creation_date 2022-1-28
_audit_author_name 'Felipe Lopes de Oliveira <felipe.lopes.oliveira@ibm.com>'

_cell_length_a    16.5388
_cell_length_b    17.6725
_cell_length_c    17.6725
_cell_angle_alpha 77.3525
_cell_angle_beta  62.1004
_cell_angle_gamma 62.1004
_cell_volume      4034.39

_symmetry_cell_setting          triclinic
_symmetry_space_group_name_Hall 'P 1'
_symmetry_space_group_name_H-M  'P 1'
_symmetry_Int_Tables_number     1

_symmetry_equiv_pos_as_xyz 'x,y,z'

loop_
_atom_site_label
_atom_site_type_symbol
_atom_site_fract_x
_atom_site_fract_y
_atom_site_fract_z
_atom_site_charge
In       In     0.587390000000     0.018530000000     0.603100000000     2.35118    
In       In     0.209020000000     0.981470000000     0.396900000000     2.35118    
In       In     0.809510000000     0.603100000000     0.981470000000     2.35118    
In       In     0.394080000000     0.396900000000     0.018530000000     2.35118    
H        H      0.027900000000     0.042600000000     0.080600000000     0.0863814  
H        H      0.083900000000     0.942500000000     0.069900000000     0.0863814  
H        H      0.076100000000     0.976100000000     0.191300000000     0.0863814  
H        H      0.920600000000     0.971200000000     0.446400000000     0.0863814  
H        H      0.793800000000     0.995800000000     0.289800000000     0.0863814  
H        H      0.784300000000     0.603300000000     0.478900000000     0.0863814  
H        H      0.674400000000     0.621700000000     0.550300000000     0.0863814  
H        H      0.703700000000     0.723800000000     0.571600000000     0.0863814  
H        H      0.711500000000     0.786200000000     0.773200000000     0.0863814  
H        H      0.826700000000     0.534900000000     0.719500000000     0.0863814  
H        H      0.151100000000     0.957400000000     0.919400000000     0.0863814  
H        H      0.096300000000     0.057500000000     0.930100000000     0.0863814  
H        H      0.243500000000     0.023900000000     0.808700000000     0.0863814  
H        H      0.338200000000     0.028800000000     0.553600000000     0.0863814  
H        H      0.079400000000     0.004200000000     0.710200000000     0.0863814  
H        H      0.866500000000     0.396700000000     0.521100000000     0.0863814  
H        H      0.846400000000     0.378300000000     0.449700000000     0.0863814  
H        H      0.999100000000     0.276200000000     0.428400000000     0.0863814  
H        H      0.270900000000     0.213800000000     0.226800000000     0.0863814  
H        H      0.081100000000     0.465100000000     0.280500000000     0.0863814  
H        H      0.891500000000     0.080600000000     0.957400000000     0.0863814  
H        H      0.846200000000     0.069900000000     0.057500000000     0.0863814  
H        H      0.732600000000     0.191300000000     0.023900000000     0.0863814  
H        H      0.633000000000     0.446400000000     0.028800000000     0.0863814  
H        H      0.916400000000     0.289800000000     0.004200000000     0.0863814  
H        H      0.736800000000     0.478900000000     0.396700000000     0.0863814  
H        H      0.775300000000     0.550300000000     0.378300000000     0.0863814  
H        H      0.724700000000     0.571600000000     0.276200000000     0.0863814  
H        H      0.515300000000     0.773200000000     0.213800000000     0.0863814  
H        H      0.453800000000     0.719500000000     0.465100000000     0.0863814  
H        H      0.929500000000     0.919400000000     0.042600000000     0.0863814  
H        H      0.973600000000     0.930100000000     0.942500000000     0.0863814  
H        H      0.947800000000     0.808700000000     0.976100000000     0.0863814  
H        H      0.108200000000     0.553600000000     0.971200000000     0.0863814  
H        H      0.210400000000     0.710200000000     0.995800000000     0.0863814  
H        H      0.612400000000     0.521100000000     0.603300000000     0.0863814  
H        H      0.703900000000     0.449700000000     0.621700000000     0.0863814  
H        H      0.572500000000     0.428400000000     0.723800000000     0.0863814  
H        H      0.502300000000     0.226800000000     0.786200000000     0.0863814  
H        H      0.638400000000     0.280500000000     0.534900000000     0.0863814  
C        C      0.021110000000     0.992190000000     0.076490000000     0.047706   
C        C      0.940420000000     0.978010000000     0.226850000000     0.047706   
C        C      0.019570000000     0.973870000000     0.238630000000     0.047706   
C        C      0.015590000000     0.966210000000     0.323810000000     0.047706   
C        C      0.926500000000     0.971580000000     0.391420000000     0.047706   
C        C      0.840380000000     0.977720000000     0.382320000000     0.047706   
C        C      0.849430000000     0.985450000000     0.298490000000     0.047706   
C        C      0.096110000000     0.964660000000     0.336520000000     0.047706   
C        C      0.752100000000     0.990020000000     0.460960000000     0.047706   
C        C      0.743700000000     0.578880000000     0.527520000000     0.047706   
C        C      0.763100000000     0.619460000000     0.642140000000     0.047706   
C        C      0.718230000000     0.708450000000     0.619090000000     0.047706   
C        C      0.698490000000     0.767710000000     0.669110000000     0.047706   
C        C      0.723800000000     0.744200000000     0.740400000000     0.047706   
C        C      0.768090000000     0.656350000000     0.760650000000     0.047706   
C        C      0.792560000000     0.592540000000     0.709540000000     0.047706   
C        C      0.647480000000     0.858960000000     0.653680000000     0.047706   
C        C      0.796300000000     0.633800000000     0.837400000000     0.047706   
C        C      0.089790000000     0.007810000000     0.923510000000     0.047706   
C        C      0.145280000000     0.021990000000     0.773150000000     0.047706   
C        C      0.232070000000     0.026130000000     0.761370000000     0.047706   
C        C      0.305610000000     0.033790000000     0.676190000000     0.047706   
C        C      0.289500000000     0.028420000000     0.608580000000     0.047706   
C        C      0.200420000000     0.022280000000     0.617680000000     0.047706   
C        C      0.133370000000     0.014550000000     0.701510000000     0.047706   
C        C      0.397290000000     0.035340000000     0.663480000000     0.047706   
C        C      0.203080000000     0.009980000000     0.539040000000     0.047706   
C        C      0.850100000000     0.421120000000     0.472480000000     0.047706   
C        C      0.024700000000     0.380540000000     0.357860000000     0.047706   
C        C      0.045770000000     0.291550000000     0.380910000000     0.047706   
C        C      0.135310000000     0.232290000000     0.330890000000     0.047706   
C        C      0.208400000000     0.255800000000     0.259600000000     0.047706   
C        C      0.185090000000     0.343650000000     0.239350000000     0.047706   
C        C      0.094640000000     0.407460000000     0.290460000000     0.047706   
C        C      0.160120000000     0.141040000000     0.346320000000     0.047706   
C        C      0.267500000000     0.366200000000     0.162600000000     0.047706   
C        C      0.902400000000     0.076490000000     0.007810000000     0.047706   
C        C      0.832730000000     0.226850000000     0.021990000000     0.047706   
C        C      0.741800000000     0.238630000000     0.026130000000     0.047706   
C        C      0.660600000000     0.323810000000     0.033790000000     0.047706   
C        C      0.682080000000     0.391420000000     0.028420000000     0.047706   
C        C      0.777300000000     0.382320000000     0.022280000000     0.047706   
C        C      0.852080000000     0.298490000000     0.014550000000     0.047706   
C        C      0.567370000000     0.336520000000     0.035340000000     0.047706   
C        C      0.786940000000     0.460960000000     0.009980000000     0.047706   
C        C      0.728780000000     0.527520000000     0.421120000000     0.047706   
C        C      0.594760000000     0.642140000000     0.380540000000     0.047706   
C        C      0.662680000000     0.619090000000     0.291550000000     0.047706   
C        C      0.632400000000     0.669110000000     0.232290000000     0.047706   
C        C      0.535800000000     0.740400000000     0.255800000000     0.047706   
C        C      0.471260000000     0.760650000000     0.343650000000     0.047706   
C        C      0.497900000000     0.709540000000     0.407460000000     0.047706   
C        C      0.698840000000     0.653680000000     0.141040000000     0.047706   
C        C      0.366300000000     0.837400000000     0.366200000000     0.047706   
C        C      0.986700000000     0.923510000000     0.992190000000     0.047706   
C        C      0.081570000000     0.773150000000     0.978010000000     0.047706   
C        C      0.006560000000     0.761370000000     0.973870000000     0.047706   
C        C      0.018200000000     0.676190000000     0.966210000000     0.047706   
C        C      0.101920000000     0.608580000000     0.971580000000     0.047706   
C        C      0.181900000000     0.617680000000     0.977720000000     0.047706   
C        C      0.165120000000     0.701510000000     0.985450000000     0.047706   
C        C      0.939230000000     0.663480000000     0.964660000000     0.047706   
C        C      0.257880000000     0.539040000000     0.990020000000     0.047706   
C        C      0.677420000000     0.472480000000     0.578880000000     0.047706   
C        C      0.617440000000     0.357860000000     0.619460000000     0.047706   
C        C      0.573320000000     0.380910000000     0.708450000000     0.047706   
C        C      0.533800000000     0.330890000000     0.767710000000     0.047706   
C        C      0.532000000000     0.259600000000     0.744200000000     0.047706   
C        C      0.575560000000     0.239350000000     0.656350000000     0.047706   
C        C      0.614900000000     0.290460000000     0.592540000000     0.047706   
C        C      0.493560000000     0.346320000000     0.858960000000     0.047706   
C        C      0.569900000000     0.162600000000     0.633800000000     0.047706   
C        C      0.000000000000     0.000000000000     0.000000000000     0.047706   
C        C      0.750000000000     0.500000000000     0.500000000000     0.047706   
O        O      0.939980000000     0.983780000000     0.152200000000    -0.409756   
O        O      0.669940000000     0.011110000000     0.452470000000    -0.409756   
O        O      0.752290000000     0.984620000000     0.531780000000    -0.409756   
O        O      0.092910000000     0.946330000000     0.411710000000    -0.409756   
O        O      0.169620000000     0.978570000000     0.272410000000    -0.409756   
O        O      0.781900000000     0.552100000000     0.593500000000    -0.409756   
O        O      0.622990000000     0.882020000000     0.593840000000    -0.409756   
O        O      0.641100000000     0.913630000000     0.693670000000    -0.409756   
O        O      0.747890000000     0.685370000000     0.893030000000    -0.409756   
O        O      0.862490000000     0.558650000000     0.835190000000    -0.409756   
O        O      0.075960000000     0.016220000000     0.847800000000    -0.409756   
O        O      0.133520000000     0.988890000000     0.547530000000    -0.409756   
O        O      0.268690000000     0.015380000000     0.468220000000    -0.409756   
O        O      0.450950000000     0.053670000000     0.588290000000    -0.409756   
O        O      0.420600000000     0.021430000000     0.727590000000    -0.409756   
O        O      0.927500000000     0.447900000000     0.406500000000    -0.409756   
O        O      0.098850000000     0.117980000000     0.406160000000    -0.409756   
O        O      0.248400000000     0.086370000000     0.306330000000    -0.409756   
O        O      0.326290000000     0.314630000000     0.106970000000    -0.409756   
O        O      0.256330000000     0.441350000000     0.164810000000    -0.409756   
O        O      0.907820000000     0.152200000000     0.016220000000    -0.409756   
O        O      0.877590000000     0.452470000000     0.988890000000    -0.409756   
O        O      0.715930000000     0.531780000000     0.015380000000    -0.409756   
O        O      0.495380000000     0.411710000000     0.053670000000    -0.409756   
O        O      0.557970000000     0.272410000000     0.021430000000    -0.409756   
O        O      0.624600000000     0.593500000000     0.447900000000    -0.409756   
O        O      0.783170000000     0.593840000000     0.117980000000    -0.409756   
O        O      0.665230000000     0.693670000000     0.086370000000    -0.409756   
O        O      0.359080000000     0.893030000000     0.314630000000    -0.409756   
O        O      0.302320000000     0.835190000000     0.441350000000    -0.409756   
O        O      0.076240000000     0.847800000000     0.983780000000    -0.409756   
O        O      0.318950000000     0.547530000000     0.011110000000    -0.409756   
O        O      0.263090000000     0.468220000000     0.984620000000    -0.409756   
O        O      0.960760000000     0.588290000000     0.946330000000    -0.409756   
O        O      0.851810000000     0.727590000000     0.978570000000    -0.409756   
O        O      0.666000000000     0.406500000000     0.552100000000    -0.409756   
O        O      0.494990000000     0.406160000000     0.882020000000    -0.409756   
O        O      0.445270000000     0.306330000000     0.913630000000    -0.409756   
O        O      0.566740000000     0.106970000000     0.685370000000    -0.409756   
O        O      0.578860000000     0.164810000000     0.558650000000    -0.409756   


