data_FECKAA_original

_audit_creation_method RASPA-1.0
_audit_creation_date 2022-1-30
_audit_author_name 'Felipe Lopes de Oliveira <felipe.lopes.oliveira@ibm.com>'

_cell_length_a    10.9175
_cell_length_b    21.4699
_cell_length_c    21.4699
_cell_angle_alpha 117.188
_cell_angle_beta  99.7588
_cell_angle_gamma 99.7588
_cell_volume      4233.05

_symmetry_cell_setting          triclinic
_symmetry_space_group_name_Hall 'P 1'
_symmetry_space_group_name_H-M  'P 1'
_symmetry_Int_Tables_number     1

_symmetry_equiv_pos_as_xyz 'x,y,z'

loop_
_atom_site_label
_atom_site_type_symbol
_atom_site_fract_x
_atom_site_fract_y
_atom_site_fract_z
_atom_site_charge
Zn       Zn     0.276280000000     0.000160000000     0.913780000000     0.498796   
Zn       Zn     0.362500000000     0.086220000000     0.086380000000     0.498796   
Zn       Zn     0.276120000000     0.913620000000     0.999840000000     0.498796   
Zn       Zn     0.539270000000     0.000000000000     0.000000000000     0.498796   
H        H      0.842100000000     0.000000000000     0.756500000000     0.0500402  
H        H      0.488300000000     0.993500000000     0.654100000000     0.0500402  
H        H      0.411700000000     0.999600000000     0.751500000000     0.0500402  
H        H      0.765500000000     0.006300000000     0.854000000000     0.0500402  
H        H      0.687400000000     0.896300000000     0.572800000000     0.0500402  
H        H      0.971100000000     0.129300000000     0.552800000000     0.0500402  
H        H      0.989400000000     0.242600000000     0.652800000000     0.0500402  
H        H      0.783100000000     0.140600000000     0.736800000000     0.0500402  
H        H      0.177700000000     0.998200000000     0.429200000000     0.0500402  
H        H      0.668700000000     0.009300000000     0.443300000000     0.0500402  
H        H      0.550700000000     0.011400000000     0.342800000000     0.0500402  
H        H      0.862200000000     0.004600000000     0.263200000000     0.0500402  
H        H      0.029700000000     0.888100000000     0.243800000000     0.0500402  
H        H      0.152600000000     0.109100000000     0.358500000000     0.0500402  
H        H      0.252400000000     0.109000000000     0.270100000000     0.0500402  
H        H      0.129600000000     0.888100000000     0.155600000000     0.0500402  
H        H      0.234700000000     0.009500000000     0.604200000000     0.0500402  
H        H      0.177100000000     0.939700000000     0.522200000000     0.0500402  
H        H      0.557900000000     0.975400000000     0.606800000000     0.0500402  
H        H      0.519700000000     0.087500000000     0.677100000000     0.0500402  
H        H      0.359300000000     0.123400000000     0.625300000000     0.0500402  
H        H      0.275400000000     0.935200000000     0.433100000000     0.0500402  
H        H      0.435700000000     0.899200000000     0.484700000000     0.0500402  
H        H      0.917400000000     0.895500000000     0.425400000000     0.0500402  
H        H      0.982500000000     0.874200000000     0.482400000000     0.0500402  
H        H      0.021100000000     0.782600000000     0.364600000000     0.0500402  
H        H      0.687500000000     0.769900000000     0.422900000000     0.0500402  
H        H      0.781100000000     0.743000000000     0.510700000000     0.0500402  
H        H      0.994800000000     0.736100000000     0.525700000000     0.0500402  
H        H      0.114700000000     0.755700000000     0.452400000000     0.0500402  
H        H      0.085600000000     0.243500000000     0.243500000000     0.0500402  
H        H      0.834200000000     0.345900000000     0.339400000000     0.0500402  
H        H      0.660200000000     0.248500000000     0.248100000000     0.0500402  
H        H      0.911500000000     0.146000000000     0.152300000000     0.0500402  
H        H      0.114600000000     0.427200000000     0.323500000000     0.0500402  
H        H      0.418300000000     0.447200000000     0.576500000000     0.0500402  
H        H      0.336600000000     0.347200000000     0.589800000000     0.0500402  
H        H      0.046300000000     0.263200000000     0.403800000000     0.0500402  
H        H      0.748500000000     0.570800000000     0.569000000000     0.0500402  
H        H      0.225400000000     0.556700000000     0.566000000000     0.0500402  
H        H      0.207900000000     0.657200000000     0.668600000000     0.0500402  
H        H      0.599000000000     0.736800000000     0.741400000000     0.0500402  
H        H      0.785900000000     0.756200000000     0.644300000000     0.0500402  
H        H      0.794100000000     0.641500000000     0.750600000000     0.0500402  
H        H      0.982300000000     0.729900000000     0.838900000000     0.0500402  
H        H      0.974000000000     0.844400000000     0.732500000000     0.0500402  
H        H      0.630500000000     0.395800000000     0.405300000000     0.0500402  
H        H      0.654900000000     0.477800000000     0.417500000000     0.0500402  
H        H      0.951100000000     0.393200000000     0.368600000000     0.0500402  
H        H      0.842600000000     0.322900000000     0.410400000000     0.0500402  
H        H      0.734000000000     0.374700000000     0.498100000000     0.0500402  
H        H      0.842300000000     0.566900000000     0.502100000000     0.0500402  
H        H      0.951000000000     0.515300000000     0.414500000000     0.0500402  
H        H      0.492000000000     0.574600000000     0.470100000000     0.0500402  
H        H      0.500100000000     0.517600000000     0.391800000000     0.0500402  
H        H      0.656500000000     0.635400000000     0.418000000000     0.0500402  
H        H      0.264600000000     0.577100000000     0.347000000000     0.0500402  
H        H      0.270400000000     0.489300000000     0.232300000000     0.0500402  
H        H      0.469100000000     0.474300000000     0.210400000000     0.0500402  
H        H      0.662300000000     0.547600000000     0.303300000000     0.0500402  
H        H      0.842100000000     0.756500000000     0.000000000000     0.0500402  
H        H      0.494800000000     0.660600000000     0.006500000000     0.0500402  
H        H      0.412100000000     0.751900000000     0.000400000000     0.0500402  
H        H      0.759200000000     0.847700000000     0.993700000000     0.0500402  
H        H      0.791100000000     0.676500000000     0.103700000000     0.0500402  
H        H      0.841800000000     0.423500000000     0.870700000000     0.0500402  
H        H      0.746800000000     0.410200000000     0.757400000000     0.0500402  
H        H      0.642500000000     0.596200000000     0.859400000000     0.0500402  
H        H      0.179500000000     0.431000000000     0.001800000000     0.0500402  
H        H      0.659400000000     0.434000000000     0.990700000000     0.0500402  
H        H      0.539300000000     0.331400000000     0.988600000000     0.0500402  
H        H      0.857600000000     0.258600000000     0.995400000000     0.0500402  
H        H      0.141600000000     0.355700000000     0.111900000000     0.0500402  
H        H      0.043500000000     0.249400000000     0.890900000000     0.0500402  
H        H      0.143400000000     0.161100000000     0.891000000000     0.0500402  
H        H      0.241500000000     0.267500000000     0.111900000000     0.0500402  
H        H      0.225200000000     0.594700000000     0.990500000000     0.0500402  
H        H      0.237400000000     0.582500000000     0.060300000000     0.0500402  
H        H      0.582500000000     0.631400000000     0.024600000000     0.0500402  
H        H      0.432200000000     0.589600000000     0.912500000000     0.0500402  
H        H      0.235900000000     0.501900000000     0.876600000000     0.0500402  
H        H      0.340200000000     0.497900000000     0.064800000000     0.0500402  
H        H      0.536500000000     0.585500000000     0.100800000000     0.0500402  
H        H      0.021900000000     0.529900000000     0.104500000000     0.0500402  
H        H      0.108300000000     0.608200000000     0.125800000000     0.0500402  
H        H      0.238500000000     0.582000000000     0.217400000000     0.0500402  
H        H      0.917600000000     0.653000000000     0.230100000000     0.0500402  
H        H      0.038100000000     0.767700000000     0.257000000000     0.0500402  
H        H      0.258700000000     0.789600000000     0.263900000000     0.0500402  
H        H      0.359000000000     0.696700000000     0.244300000000     0.0500402  
C        C      0.755000000000     0.000000000000     0.755000000000     0.00622072 
C        C      0.672000000000     0.996000000000     0.696000000000     0.00622072 
C        C      0.544600000000     0.996100000000     0.694700000000     0.00622072 
C        C      0.499100000000     0.999700000000     0.752600000000     0.00622072 
C        C      0.581200000000     0.003600000000     0.812000000000     0.00622072 
C        C      0.710000000000     0.004000000000     0.814000000000     0.00622072 
C        C      0.505300000000     0.001000000000     0.868900000000     0.00622072 
C        C      0.254000000000     0.999000000000     0.159000000000     0.00622072 
C        C      0.856000000000     0.001000000000     0.526000000000     0.00622072 
C        C      0.789000000000     0.937000000000     0.521000000000     0.00622072 
C        C      0.734000000000     0.941000000000     0.577000000000     0.00622072 
C        C      0.744000000000     0.008000000000     0.636000000000     0.00622072 
C        C      0.811000000000     0.072000000000     0.641000000000     0.00622072 
C        C      0.866400000000     0.068400000000     0.585800000000     0.00622072 
C        C      0.933000000000     0.132000000000     0.590000000000     0.00622072 
C        C      0.944000000000     0.199000000000     0.649000000000     0.00622072 
C        C      0.888000000000     0.203000000000     0.705000000000     0.00622072 
C        C      0.822000000000     0.139000000000     0.700000000000     0.00622072 
C        C      0.905200000000     0.004200000000     0.472400000000     0.00622072 
C        C      0.033200000000     0.001200000000     0.478400000000     0.00622072 
C        C      0.091000000000     0.000000000000     0.425000000000     0.00622072 
C        C      0.020800000000     0.001800000000     0.365600000000     0.00622072 
C        C      0.892500000000     0.004200000000     0.359300000000     0.00622072 
C        C      0.836000000000     0.006000000000     0.413000000000     0.00622072 
C        C      0.708000000000     0.009000000000     0.407000000000     0.00622072 
C        C      0.638000000000     0.009000000000     0.347000000000     0.00622072 
C        C      0.695000000000     0.008000000000     0.294000000000     0.00622072 
C        C      0.822700000000     0.004700000000     0.299400000000     0.00622072 
C        C      0.075000000000     0.932900000000     0.249100000000     0.00622072 
C        C      0.082400000000     0.999400000000     0.309800000000     0.00622072 
C        C      0.147800000000     0.064800000000     0.317600000000     0.00622072 
C        C      0.207000000000     0.064200000000     0.264800000000     0.00622072 
C        C      0.200000000000     0.998500000000     0.204500000000     0.00622072 
C        C      0.134500000000     0.932800000000     0.196700000000     0.00622072 
C        C      0.202000000000     0.993000000000     0.552000000000     0.00622072 
C        C      0.494000000000     0.991000000000     0.587000000000     0.00622072 
C        C      0.470000000000     0.056000000000     0.627000000000     0.00622072 
C        C      0.379000000000     0.079000000000     0.598000000000     0.00622072 
C        C      0.302000000000     0.033000000000     0.524000000000     0.00622072 
C        C      0.325000000000     0.966000000000     0.483000000000     0.00622072 
C        C      0.420000000000     0.945000000000     0.513000000000     0.00622072 
C        C      0.899000000000     0.867000000000     0.450000000000     0.00622072 
C        C      0.970000000000     0.775000000000     0.395000000000     0.00622072 
C        C      0.848000000000     0.779000000000     0.385000000000     0.00622072 
C        C      0.774000000000     0.766000000000     0.428000000000     0.00622072 
C        C      0.830000000000     0.750000000000     0.480000000000     0.00622072 
C        C      0.953000000000     0.748000000000     0.491000000000     0.00622072 
C        C      0.028000000000     0.759000000000     0.447000000000     0.00622072 
C        C      0.000000000000     0.245000000000     0.245000000000     0.00622072 
C        C      0.976000000000     0.304000000000     0.300000000000     0.00622072 
C        C      0.849900000000     0.305300000000     0.301400000000     0.00622072 
C        C      0.746500000000     0.247400000000     0.247100000000     0.00622072 
C        C      0.769200000000     0.188000000000     0.191600000000     0.00622072 
C        C      0.896000000000     0.186000000000     0.190000000000     0.00622072 
C        C      0.636400000000     0.131100000000     0.132100000000     0.00622072 
C        C      0.095000000000     0.841000000000     0.840000000000     0.00622072 
C        C      0.330000000000     0.474000000000     0.475000000000     0.00622072 
C        C      0.268000000000     0.479000000000     0.416000000000     0.00622072 
C        C      0.157000000000     0.423000000000     0.364000000000     0.00622072 
C        C      0.108000000000     0.364000000000     0.372000000000     0.00622072 
C        C      0.170000000000     0.359000000000     0.431000000000     0.00622072 
C        C      0.280600000000     0.414200000000     0.482600000000     0.00622072 
C        C      0.343000000000     0.410000000000     0.542000000000     0.00622072 
C        C      0.295000000000     0.351000000000     0.550000000000     0.00622072 
C        C      0.183000000000     0.295000000000     0.498000000000     0.00622072 
C        C      0.122000000000     0.300000000000     0.439000000000     0.00622072 
C        C      0.432800000000     0.527600000000     0.531800000000     0.00622072 
C        C      0.554800000000     0.521600000000     0.522800000000     0.00622072 
C        C      0.666000000000     0.575000000000     0.575000000000     0.00622072 
C        C      0.655200000000     0.634400000000     0.636200000000     0.00622072 
C        C      0.533200000000     0.640700000000     0.644900000000     0.00622072 
C        C      0.423000000000     0.587000000000     0.593000000000     0.00622072 
C        C      0.301000000000     0.593000000000     0.602000000000     0.00622072 
C        C      0.291000000000     0.653000000000     0.662000000000     0.00622072 
C        C      0.401000000000     0.706000000000     0.714000000000     0.00622072 
C        C      0.523300000000     0.700600000000     0.705300000000     0.00622072 
C        C      0.825900000000     0.750900000000     0.683800000000     0.00622072 
C        C      0.772600000000     0.690200000000     0.689600000000     0.00622072 
C        C      0.830200000000     0.682400000000     0.747200000000     0.00622072 
C        C      0.942200000000     0.735200000000     0.799400000000     0.00622072 
C        C      0.995500000000     0.795500000000     0.794000000000     0.00622072 
C        C      0.937800000000     0.803300000000     0.736100000000     0.00622072 
C        C      0.650000000000     0.448000000000     0.441000000000     0.00622072 
C        C      0.907000000000     0.413000000000     0.404000000000     0.00622072 
C        C      0.843000000000     0.373000000000     0.429000000000     0.00622072 
C        C      0.781000000000     0.402000000000     0.481000000000     0.00622072 
C        C      0.778000000000     0.476000000000     0.509000000000     0.00622072 
C        C      0.842000000000     0.517000000000     0.483000000000     0.00622072 
C        C      0.907000000000     0.487000000000     0.432000000000     0.00622072 
C        C      0.449000000000     0.550000000000     0.417000000000     0.00622072 
C        C      0.575000000000     0.605000000000     0.380000000000     0.00622072 
C        C      0.463000000000     0.615000000000     0.394000000000     0.00622072 
C        C      0.346000000000     0.572000000000     0.338000000000     0.00622072 
C        C      0.350000000000     0.520000000000     0.270000000000     0.00622072 
C        C      0.462000000000     0.509000000000     0.257000000000     0.00622072 
C        C      0.581000000000     0.553000000000     0.312000000000     0.00622072 
C        C      0.755000000000     0.755000000000     0.000000000000     0.00622072 
C        C      0.676000000000     0.700000000000     0.004000000000     0.00622072 
C        C      0.548500000000     0.698600000000     0.003900000000     0.00622072 
C        C      0.499400000000     0.752900000000     0.000300000000     0.00622072 
C        C      0.577600000000     0.808400000000     0.996400000000     0.00622072 
C        C      0.706000000000     0.810000000000     0.996000000000     0.00622072 
C        C      0.504300000000     0.867900000000     0.999000000000     0.00622072 
C        C      0.255000000000     0.160000000000     0.001000000000     0.00622072 
C        C      0.855000000000     0.525000000000     0.999000000000     0.00622072 
C        C      0.852000000000     0.584000000000     0.063000000000     0.00622072 
C        C      0.793000000000     0.636000000000     0.059000000000     0.00622072 
C        C      0.736000000000     0.628000000000     0.992000000000     0.00622072 
C        C      0.739000000000     0.569000000000     0.928000000000     0.00622072 
C        C      0.798000000000     0.517400000000     0.931600000000     0.00622072 
C        C      0.801000000000     0.458000000000     0.868000000000     0.00622072 
C        C      0.745000000000     0.450000000000     0.801000000000     0.00622072 
C        C      0.685000000000     0.502000000000     0.797000000000     0.00622072 
C        C      0.683000000000     0.561000000000     0.861000000000     0.00622072 
C        C      0.901000000000     0.468200000000     0.995800000000     0.00622072 
C        C      0.032000000000     0.477200000000     0.998800000000     0.00622072 
C        C      0.091000000000     0.425000000000     0.000000000000     0.00622072 
C        C      0.019000000000     0.363800000000     0.998200000000     0.00622072 
C        C      0.888300000000     0.355100000000     0.995800000000     0.00622072 
C        C      0.830000000000     0.407000000000     0.994000000000     0.00622072 
C        C      0.699000000000     0.398000000000     0.991000000000     0.00622072 
C        C      0.629000000000     0.338000000000     0.991000000000     0.00622072 
C        C      0.687000000000     0.286000000000     0.992000000000     0.00622072 
C        C      0.818000000000     0.294700000000     0.995300000000     0.00622072 
C        C      0.142100000000     0.316200000000     0.067100000000     0.00622072 
C        C      0.083000000000     0.310400000000     0.000600000000     0.00622072 
C        C      0.083000000000     0.252800000000     0.935200000000     0.00622072 
C        C      0.142800000000     0.200600000000     0.935800000000     0.00622072 
C        C      0.201500000000     0.206000000000     0.001500000000     0.00622072 
C        C      0.201700000000     0.263900000000     0.067200000000     0.00622072 
C        C      0.209000000000     0.559000000000     0.007000000000     0.00622072 
C        C      0.503000000000     0.596000000000     0.009000000000     0.00622072 
C        C      0.414000000000     0.571000000000     0.944000000000     0.00622072 
C        C      0.300000000000     0.519000000000     0.921000000000     0.00622072 
C        C      0.269000000000     0.491000000000     0.967000000000     0.00622072 
C        C      0.359000000000     0.517000000000     0.034000000000     0.00622072 
C        C      0.475000000000     0.568000000000     0.055000000000     0.00622072 
C        C      0.032000000000     0.583000000000     0.133000000000     0.00622072 
C        C      0.195000000000     0.620000000000     0.225000000000     0.00622072 
C        C      0.069000000000     0.606000000000     0.221000000000     0.00622072 
C        C      0.008000000000     0.662000000000     0.234000000000     0.00622072 
C        C      0.080000000000     0.730000000000     0.250000000000     0.00622072 
C        C      0.205000000000     0.743000000000     0.252000000000     0.00622072 
C        C      0.269000000000     0.688000000000     0.241000000000     0.00622072 
Cl       Cl     0.578000000000     0.995000000000     0.205000000000    -0.319675   
Cl       Cl     0.373000000000     0.795000000000     0.790000000000    -0.319675   
Cl       Cl     0.583000000000     0.210000000000     0.005000000000    -0.319675   
O        O      0.398200000000     0.000300000000     0.857300000000    -0.338714   
O        O      0.585400000000     0.999500000000     0.918700000000    -0.338714   
O        O      0.249300000000     0.101600000000     0.948300000000    -0.338714   
O        O      0.301800000000     0.154400000000     0.053000000000    -0.338714   
O        O      0.116000000000     0.018000000000     0.539000000000    -0.338714   
O        O      0.829000000000     0.892000000000     0.488000000000    -0.338714   
O        O      0.540900000000     0.142700000000     0.143000000000    -0.338714   
O        O      0.666700000000     0.081300000000     0.080800000000    -0.338714   
O        O      0.301000000000     0.051700000000     0.153300000000    -0.338714   
O        O      0.248800000000     0.947000000000     0.101400000000    -0.338714   
O        O      0.577000000000     0.461000000000     0.479000000000    -0.338714   
O        O      0.341000000000     0.512000000000     0.404000000000    -0.338714   
O        O      0.397900000000     0.857000000000     0.999700000000    -0.338714   
O        O      0.585900000000     0.919200000000     0.000500000000    -0.338714   
O        O      0.147700000000     0.846700000000     0.898400000000    -0.338714   
O        O      0.147400000000     0.898600000000     0.845600000000    -0.338714   
O        O      0.098000000000     0.521000000000     0.982000000000    -0.338714   
O        O      0.937000000000     0.596000000000     0.108000000000    -0.338714   
O        O      0.364670000000     0.000000000000     0.000000000000    -0.338714   


