data_FECWOB_original

_audit_creation_method RASPA-1.0
_audit_creation_date 2022-1-31
_audit_author_name 'Felipe Lopes de Oliveira <felipe.lopes.oliveira@ibm.com>'

_cell_length_a    6.791
_cell_length_b    9.6036
_cell_length_c    34.113
_cell_angle_alpha 90
_cell_angle_beta  90
_cell_angle_gamma 106.425
_cell_volume      2134

_symmetry_cell_setting          triclinic
_symmetry_space_group_name_Hall 'P 1'
_symmetry_space_group_name_H-M  'P 1'
_symmetry_Int_Tables_number     1

_symmetry_equiv_pos_as_xyz 'x,y,z'

loop_
_atom_site_label
_atom_site_type_symbol
_atom_site_fract_x
_atom_site_fract_y
_atom_site_fract_z
_atom_site_charge
Zn       Zn     0.709330000000     0.673750000000     0.374980000000     0.430777   
Zn       Zn     0.790670000000     0.326250000000     0.374980000000     0.430777   
Zn       Zn     0.209330000000     0.173750000000     0.874980000000     0.430777   
Zn       Zn     0.290670000000     0.826250000000     0.874980000000     0.430777   
Zn       Zn     0.290670000000     0.326250000000     0.625020000000     0.430777   
Zn       Zn     0.209330000000     0.673750000000     0.625020000000     0.430777   
Zn       Zn     0.790670000000     0.826250000000     0.125020000000     0.430777   
Zn       Zn     0.709330000000     0.173750000000     0.125020000000     0.430777   
H        H      0.861500000000     0.716800000000     0.491500000000     0.0621978  
H        H      0.638500000000     0.283200000000     0.491500000000     0.0621978  
H        H      0.361500000000     0.216800000000     0.991500000000     0.0621978  
H        H      0.138500000000     0.783200000000     0.991500000000     0.0621978  
H        H      0.138500000000     0.283200000000     0.508500000000     0.0621978  
H        H      0.361500000000     0.716800000000     0.508500000000     0.0621978  
H        H      0.638500000000     0.783200000000     0.008500000000     0.0621978  
H        H      0.861500000000     0.216800000000     0.008500000000     0.0621978  
H        H      0.872800000000     0.719300000000     0.560100000000     0.0621978  
H        H      0.627200000000     0.280700000000     0.560100000000     0.0621978  
H        H      0.372800000000     0.219300000000     0.060100000000     0.0621978  
H        H      0.127200000000     0.780700000000     0.060100000000     0.0621978  
H        H      0.127200000000     0.280700000000     0.439900000000     0.0621978  
H        H      0.372800000000     0.719300000000     0.439900000000     0.0621978  
H        H      0.627200000000     0.780700000000     0.939900000000     0.0621978  
H        H      0.872800000000     0.219300000000     0.939900000000     0.0621978  
H        H      0.542300000000     0.298600000000     0.259500000000     0.0621978  
H        H      0.957700000000     0.701400000000     0.259500000000     0.0621978  
H        H      0.042300000000     0.798600000000     0.759500000000     0.0621978  
H        H      0.457700000000     0.201400000000     0.759500000000     0.0621978  
H        H      0.457700000000     0.701400000000     0.740500000000     0.0621978  
H        H      0.042300000000     0.298600000000     0.740500000000     0.0621978  
H        H      0.957700000000     0.201400000000     0.240500000000     0.0621978  
H        H      0.542300000000     0.798600000000     0.240500000000     0.0621978  
H        H      0.541500000000     0.305500000000     0.190500000000     0.0621978  
H        H      0.958500000000     0.694500000000     0.190500000000     0.0621978  
H        H      0.041500000000     0.805500000000     0.690500000000     0.0621978  
H        H      0.458500000000     0.194500000000     0.690500000000     0.0621978  
H        H      0.458500000000     0.694500000000     0.809500000000     0.0621978  
H        H      0.041500000000     0.305500000000     0.809500000000     0.0621978  
H        H      0.958500000000     0.194500000000     0.309500000000     0.0621978  
H        H      0.541500000000     0.805500000000     0.309500000000     0.0621978  
C        C      0.750000000000     0.500000000000     0.441500000000     0.0358279  
C        C      0.250000000000     0.000000000000     0.941500000000     0.0358279  
C        C      0.250000000000     0.500000000000     0.558500000000     0.0358279  
C        C      0.750000000000     0.000000000000     0.058500000000     0.0358279  
C        C      0.750000000000     0.500000000000     0.485900000000     0.0358279  
C        C      0.250000000000     0.000000000000     0.985900000000     0.0358279  
C        C      0.250000000000     0.500000000000     0.514100000000     0.0358279  
C        C      0.750000000000     0.000000000000     0.014100000000     0.0358279  
C        C      0.817300000000     0.628200000000     0.505700000000     0.0358279  
C        C      0.682700000000     0.371800000000     0.505700000000     0.0358279  
C        C      0.317300000000     0.128200000000     0.005700000000     0.0358279  
C        C      0.182700000000     0.871800000000     0.005700000000     0.0358279  
C        C      0.182700000000     0.371800000000     0.494300000000     0.0358279  
C        C      0.317300000000     0.628200000000     0.494300000000     0.0358279  
C        C      0.682700000000     0.871800000000     0.994300000000     0.0358279  
C        C      0.817300000000     0.128200000000     0.994300000000     0.0358279  
C        C      0.821700000000     0.630400000000     0.546300000000     0.0358279  
C        C      0.678300000000     0.369600000000     0.546300000000     0.0358279  
C        C      0.321700000000     0.130400000000     0.046300000000     0.0358279  
C        C      0.178300000000     0.869600000000     0.046300000000     0.0358279  
C        C      0.178300000000     0.369600000000     0.453700000000     0.0358279  
C        C      0.321700000000     0.630400000000     0.453700000000     0.0358279  
C        C      0.678300000000     0.869600000000     0.953700000000     0.0358279  
C        C      0.821700000000     0.130400000000     0.953700000000     0.0358279  
C        C      0.750000000000     0.500000000000     0.566600000000     0.0358279  
C        C      0.250000000000     0.000000000000     0.066600000000     0.0358279  
C        C      0.250000000000     0.500000000000     0.433400000000     0.0358279  
C        C      0.750000000000     0.000000000000     0.933400000000     0.0358279  
C        C      0.750000000000     0.500000000000     0.609000000000     0.0358279  
C        C      0.250000000000     0.000000000000     0.109000000000     0.0358279  
C        C      0.250000000000     0.500000000000     0.391000000000     0.0358279  
C        C      0.750000000000     0.000000000000     0.891000000000     0.0358279  
C        C      0.750000000000     0.500000000000     0.310200000000     0.0358279  
C        C      0.250000000000     0.000000000000     0.810200000000     0.0358279  
C        C      0.250000000000     0.500000000000     0.689800000000     0.0358279  
C        C      0.750000000000     0.000000000000     0.189800000000     0.0358279  
C        C      0.750000000000     0.500000000000     0.266200000000     0.0358279  
C        C      0.250000000000     0.000000000000     0.766200000000     0.0358279  
C        C      0.250000000000     0.500000000000     0.733800000000     0.0358279  
C        C      0.750000000000     0.000000000000     0.233800000000     0.0358279  
C        C      0.622500000000     0.379500000000     0.246200000000     0.0358279  
C        C      0.877500000000     0.620500000000     0.246200000000     0.0358279  
C        C      0.122500000000     0.879500000000     0.746200000000     0.0358279  
C        C      0.377500000000     0.120500000000     0.746200000000     0.0358279  
C        C      0.377500000000     0.620500000000     0.753800000000     0.0358279  
C        C      0.122500000000     0.379500000000     0.753800000000     0.0358279  
C        C      0.877500000000     0.120500000000     0.253800000000     0.0358279  
C        C      0.622500000000     0.879500000000     0.253800000000     0.0358279  
C        C      0.623500000000     0.380400000000     0.204600000000     0.0358279  
C        C      0.876500000000     0.619600000000     0.204600000000     0.0358279  
C        C      0.123500000000     0.880400000000     0.704600000000     0.0358279  
C        C      0.376500000000     0.119600000000     0.704600000000     0.0358279  
C        C      0.376500000000     0.619600000000     0.795400000000     0.0358279  
C        C      0.123500000000     0.380400000000     0.795400000000     0.0358279  
C        C      0.876500000000     0.119600000000     0.295400000000     0.0358279  
C        C      0.623500000000     0.880400000000     0.295400000000     0.0358279  
C        C      0.750000000000     0.500000000000     0.141300000000     0.0358279  
C        C      0.250000000000     0.000000000000     0.641300000000     0.0358279  
C        C      0.250000000000     0.500000000000     0.858700000000     0.0358279  
C        C      0.750000000000     0.000000000000     0.358700000000     0.0358279  
C        C      0.750000000000     0.500000000000     0.185200000000     0.0358279  
C        C      0.250000000000     0.000000000000     0.685200000000     0.0358279  
C        C      0.250000000000     0.500000000000     0.814800000000     0.0358279  
C        C      0.750000000000     0.000000000000     0.314800000000     0.0358279  
N        N      0.593800000000     0.431400000000     0.632200000000    -0.086976   
N        N      0.906200000000     0.568600000000     0.632200000000    -0.086976   
N        N      0.093800000000     0.931400000000     0.132200000000    -0.086976   
N        N      0.406200000000     0.068600000000     0.132200000000    -0.086976   
N        N      0.406200000000     0.568600000000     0.367800000000    -0.086976   
N        N      0.093800000000     0.431400000000     0.367800000000    -0.086976   
N        N      0.906200000000     0.068600000000     0.867800000000    -0.086976   
N        N      0.593800000000     0.931400000000     0.867800000000    -0.086976   
N        N      0.656200000000     0.457800000000     0.669800000000    -0.086976   
N        N      0.843800000000     0.542200000000     0.669800000000    -0.086976   
N        N      0.156200000000     0.957800000000     0.169800000000    -0.086976   
N        N      0.343800000000     0.042200000000     0.169800000000    -0.086976   
N        N      0.343800000000     0.542200000000     0.330200000000    -0.086976   
N        N      0.156200000000     0.457800000000     0.330200000000    -0.086976   
N        N      0.843800000000     0.042200000000     0.830200000000    -0.086976   
N        N      0.656200000000     0.957800000000     0.830200000000    -0.086976   
N        N      0.761700000000     0.615700000000     0.119300000000    -0.086976   
N        N      0.738300000000     0.384300000000     0.119300000000    -0.086976   
N        N      0.261700000000     0.115700000000     0.619300000000    -0.086976   
N        N      0.238300000000     0.884300000000     0.619300000000    -0.086976   
N        N      0.238300000000     0.384300000000     0.880700000000    -0.086976   
N        N      0.261700000000     0.615700000000     0.880700000000    -0.086976   
N        N      0.738300000000     0.884300000000     0.380700000000    -0.086976   
N        N      0.761700000000     0.115700000000     0.380700000000    -0.086976   
N        N      0.746200000000     0.565200000000     0.082500000000    -0.086976   
N        N      0.753800000000     0.434800000000     0.082500000000    -0.086976   
N        N      0.246200000000     0.065200000000     0.582500000000    -0.086976   
N        N      0.253800000000     0.934800000000     0.582500000000    -0.086976   
N        N      0.253800000000     0.434800000000     0.917500000000    -0.086976   
N        N      0.246200000000     0.565200000000     0.917500000000    -0.086976   
N        N      0.753800000000     0.934800000000     0.417500000000    -0.086976   
N        N      0.746200000000     0.065200000000     0.417500000000    -0.086976   
O        O      0.805300000000     0.622800000000     0.425000000000    -0.309144   
O        O      0.694700000000     0.377200000000     0.425000000000    -0.309144   
O        O      0.305300000000     0.122800000000     0.925000000000    -0.309144   
O        O      0.194700000000     0.877200000000     0.925000000000    -0.309144   
O        O      0.194700000000     0.377200000000     0.575000000000    -0.309144   
O        O      0.305300000000     0.622800000000     0.575000000000    -0.309144   
O        O      0.694700000000     0.877200000000     0.075000000000    -0.309144   
O        O      0.805300000000     0.122800000000     0.075000000000    -0.309144   
O        O      0.818000000000     0.619100000000     0.326800000000    -0.309144   
O        O      0.682000000000     0.380900000000     0.326800000000    -0.309144   
O        O      0.318000000000     0.119100000000     0.826800000000    -0.309144   
O        O      0.182000000000     0.880900000000     0.826800000000    -0.309144   
O        O      0.182000000000     0.380900000000     0.673200000000    -0.309144   
O        O      0.318000000000     0.619100000000     0.673200000000    -0.309144   
O        O      0.682000000000     0.880900000000     0.173200000000    -0.309144   
O        O      0.818000000000     0.119100000000     0.173200000000    -0.309144   


