data_FECZAQ_original

_audit_creation_method RASPA-1.0
_audit_creation_date 2022-1-31
_audit_author_name 'Felipe Lopes de Oliveira <felipe.lopes.oliveira@ibm.com>'

_cell_length_a    17.3043
_cell_length_b    17.9565
_cell_length_c    18.377
_cell_angle_alpha 90
_cell_angle_beta  90
_cell_angle_gamma 90
_cell_volume      5710.19

_symmetry_cell_setting          triclinic
_symmetry_space_group_name_Hall 'P 1'
_symmetry_space_group_name_H-M  'P 1'
_symmetry_Int_Tables_number     1

_symmetry_equiv_pos_as_xyz 'x,y,z'

loop_
_atom_site_label
_atom_site_type_symbol
_atom_site_fract_x
_atom_site_fract_y
_atom_site_fract_z
_atom_site_charge
Zn       Zn     0.823430000000     0.055430000000     0.681870000000     0.530174   
Zn       Zn     0.703470000000     0.387230000000     0.182170000000     0.530174   
Zn       Zn     0.823350000000     0.887250000000     0.681800000000     0.530174   
Zn       Zn     0.703270000000     0.555390000000     0.181650000000     0.530174   
Zn       Zn     0.698090000000     0.972160000000     0.600070000000     0.530174   
Zn       Zn     0.698560000000     0.970820000000     0.764110000000     0.530174   
Zn       Zn     0.828640000000     0.471860000000     0.100120000000     0.530174   
Zn       Zn     0.828350000000     0.471150000000     0.264130000000     0.530174   
Zn       Zn     0.176560000000     0.112170000000     0.317890000000     0.530174   
Zn       Zn     0.296760000000     0.443860000000     0.818270000000     0.530174   
Zn       Zn     0.176490000000     0.943980000000     0.318100000000     0.530174   
Zn       Zn     0.296380000000     0.612020000000     0.817850000000     0.530174   
Zn       Zn     0.301690000000     0.027360000000     0.399970000000     0.530174   
Zn       Zn     0.301470000000     0.028400000000     0.235910000000     0.530174   
Zn       Zn     0.171470000000     0.527240000000     0.900040000000     0.530174   
Zn       Zn     0.171460000000     0.528220000000     0.736030000000     0.530174   
H        H      0.316840000000     0.028630000000     0.579750000000     0.0499984  
H        H      0.870220000000     0.217300000000     0.522050000000     0.0499984  
H        H      0.652530000000     0.134760000000     0.441430000000     0.0499984  
H        H      0.655510000000     0.226930000000     0.343440000000     0.0499984  
H        H      0.872070000000     0.311230000000     0.425470000000     0.0499984  
H        H      0.063330000000     0.858200000000     0.720500000000     0.0499984  
H        H      0.204870000000     0.859300000000     0.722760000000     0.0499984  
H        H      0.204550000000     0.084950000000     0.642650000000     0.0499984  
H        H      0.067690000000     0.535900000000     0.083100000000     0.0499984  
H        H      0.674130000000     0.209770000000     0.036870000000     0.0499984  
H        H      0.856750000000     0.326060000000     0.924450000000     0.0499984  
H        H      0.854500000000     0.231990000000     0.828270000000     0.0499984  
H        H      0.672100000000     0.115550000000     0.940760000000     0.0499984  
H        H      0.463490000000     0.587920000000     0.153530000000     0.0499984  
H        H      0.068280000000     0.407850000000     0.281460000000     0.0499984  
H        H      0.210230000000     0.406870000000     0.280420000000     0.0499984  
H        H      0.458510000000     0.026800000000     0.578570000000     0.0499984  
H        H      0.854120000000     0.711520000000     0.535230000000     0.0499984  
H        H      0.671390000000     0.827700000000     0.422830000000     0.0499984  
H        H      0.673580000000     0.733490000000     0.326710000000     0.0499984  
H        H      0.856070000000     0.617220000000     0.439260000000     0.0499984  
H        H      0.062890000000     0.084590000000     0.642320000000     0.0499984  
H        H      0.458600000000     0.916270000000     0.786790000000     0.0499984  
H        H      0.316750000000     0.916000000000     0.786650000000     0.0499984  
H        H      0.209640000000     0.536800000000     0.083530000000     0.0499984  
H        H      0.657690000000     0.718440000000     0.022840000000     0.0499984  
H        H      0.872000000000     0.631560000000     0.938600000000     0.0499984  
H        H      0.869030000000     0.723680000000     0.840540000000     0.0499984  
H        H      0.655910000000     0.812200000000     0.926170000000     0.0499984  
H        H      0.463020000000     0.354060000000     0.207030000000     0.0499984  
H        H      0.321320000000     0.354570000000     0.207710000000     0.0499984  
H        H      0.321810000000     0.588040000000     0.153260000000     0.0499984  
H        H      0.683550000000     0.971710000000     0.419930000000     0.0499984  
H        H      0.146940000000     0.289350000000     0.463600000000     0.0499984  
H        H      0.326700000000     0.170750000000     0.577810000000     0.0499984  
H        H      0.324530000000     0.264790000000     0.674060000000     0.0499984  
H        H      0.145140000000     0.383570000000     0.559690000000     0.0499984  
H        H      0.936760000000     0.914360000000     0.354460000000     0.0499984  
H        H      0.932310000000     0.461990000000     0.916610000000     0.0499984  
H        H      0.343510000000     0.281760000000     0.977900000000     0.0499984  
H        H      0.127730000000     0.366800000000     0.060640000000     0.0499984  
H        H      0.130710000000     0.274650000000     0.158620000000     0.0499984  
H        H      0.345450000000     0.188050000000     0.074670000000     0.0499984  
H        H      0.536850000000     0.643930000000     0.787230000000     0.0499984  
H        H      0.931700000000     0.592320000000     0.719630000000     0.0499984  
H        H      0.789950000000     0.593380000000     0.720590000000     0.0499984  
H        H      0.541840000000     0.973680000000     0.421760000000     0.0499984  
H        H      0.128370000000     0.783550000000     0.479330000000     0.0499984  
H        H      0.347730000000     0.863930000000     0.558010000000     0.0499984  
H        H      0.345010000000     0.771380000000     0.655700000000     0.0499984  
H        H      0.126550000000     0.689510000000     0.575830000000     0.0499984  
H        H      0.936580000000     0.141990000000     0.279730000000     0.0499984  
H        H      0.795000000000     0.141020000000     0.277450000000     0.0499984  
H        H      0.795100000000     0.914340000000     0.354670000000     0.0499984  
H        H      0.540820000000     0.082910000000     0.212850000000     0.0499984  
H        H      0.682710000000     0.083510000000     0.212590000000     0.0499984  
H        H      0.790510000000     0.461290000000     0.916380000000     0.0499984  
H        H      0.324620000000     0.790280000000     0.962390000000     0.0499984  
H        H      0.146570000000     0.670710000000     0.078020000000     0.0499984  
H        H      0.149140000000     0.764650000000     0.174310000000     0.0499984  
H        H      0.326830000000     0.884420000000     0.058500000000     0.0499984  
H        H      0.536290000000     0.413000000000     0.851850000000     0.0499984  
H        H      0.677740000000     0.412820000000     0.852680000000     0.0499984  
H        H      0.678450000000     0.643650000000     0.787420000000     0.0499984  
C        C      0.765020000000     0.334950000000     0.316930000000     0.0445833  
C        C      0.346930000000     0.004270000000     0.625440000000     0.0445833  
C        C      0.764020000000     0.276980000000     0.376070000000     0.0445833  
C        C      0.761630000000     0.167410000000     0.489450000000     0.0445833  
C        C      0.760970000000     0.108930000000     0.548090000000     0.0445833  
C        C      0.822720000000     0.218950000000     0.483710000000     0.0445833  
C        C      0.701400000000     0.172140000000     0.438020000000     0.0445833  
C        C      0.702840000000     0.225570000000     0.381960000000     0.0445833  
C        C      0.823810000000     0.272920000000     0.428070000000     0.0445833  
C        C      0.093270000000     0.908180000000     0.703410000000     0.0445833  
C        C      0.174810000000     0.908910000000     0.704970000000     0.0445833  
C        C      0.174620000000     0.034920000000     0.659640000000     0.0445833  
C        C      0.761840000000     0.107440000000     0.816930000000     0.0445833  
C        C      0.097950000000     0.507840000000     0.126750000000     0.0445833  
C        C      0.762960000000     0.165710000000     0.876040000000     0.0445833  
C        C      0.765430000000     0.276250000000     0.988910000000     0.0445833  
C        C      0.766190000000     0.334670000000     0.047820000000     0.0445833  
C        C      0.713890000000     0.215480000000     0.991710000000     0.0445833  
C        C      0.815880000000     0.280620000000     0.928750000000     0.0445833  
C        C      0.814620000000     0.226390000000     0.873330000000     0.0445833  
C        C      0.712690000000     0.161210000000     0.936310000000     0.0445833  
C        C      0.433390000000     0.536440000000     0.165440000000     0.0445833  
C        C      0.098330000000     0.436280000000     0.237850000000     0.0445833  
C        C      0.179910000000     0.435420000000     0.237070000000     0.0445833  
C        C      0.765540000000     0.608350000000     0.316060000000     0.0445833  
C        C      0.428460000000     0.002690000000     0.624540000000     0.0445833  
C        C      0.764900000000     0.667090000000     0.374720000000     0.0445833  
C        C      0.762510000000     0.777730000000     0.487450000000     0.0445833  
C        C      0.761350000000     0.835750000000     0.546730000000     0.0445833  
C        C      0.814240000000     0.717120000000     0.490140000000     0.0445833  
C        C      0.712150000000     0.782180000000     0.427220000000     0.0445833  
C        C      0.713390000000     0.727890000000     0.371840000000     0.0445833  
C        C      0.815400000000     0.662810000000     0.434820000000     0.0445833  
C        C      0.093060000000     0.034840000000     0.659800000000     0.0445833  
C        C      0.428460000000     0.940930000000     0.741100000000     0.0445833  
C        C      0.346870000000     0.940530000000     0.740890000000     0.0445833  
C        C      0.761430000000     0.834050000000     0.816020000000     0.0445833  
C        C      0.179520000000     0.508730000000     0.127150000000     0.0445833  
C        C      0.762180000000     0.775780000000     0.874900000000     0.0445833  
C        C      0.764610000000     0.666420000000     0.988520000000     0.0445833  
C        C      0.765380000000     0.608180000000     0.047430000000     0.0445833  
C        C      0.704440000000     0.719050000000     0.983660000000     0.0445833  
C        C      0.823860000000     0.669890000000     0.935990000000     0.0445833  
C        C      0.822340000000     0.723170000000     0.879770000000     0.0445833  
C        C      0.703350000000     0.772910000000     0.927940000000     0.0445833  
C        C      0.433150000000     0.405670000000     0.195330000000     0.0445833  
C        C      0.351560000000     0.406010000000     0.196100000000     0.0445833  
C        C      0.351830000000     0.536450000000     0.164930000000     0.0445833  
C        C      0.470700000000     0.971550000000     0.682660000000     0.0445833  
C        C      0.963620000000     0.971250000000     0.681470000000     0.0445833  
C        C      0.557940000000     0.971330000000     0.682410000000     0.0445833  
C        C      0.304560000000     0.972530000000     0.683200000000     0.0445833  
C        C      0.050890000000     0.971360000000     0.681400000000     0.0445833  
C        C      0.217050000000     0.972160000000     0.682720000000     0.0445833  
C        C      0.055960000000     0.471930000000     0.182340000000     0.0445833  
C        C      0.563010000000     0.471080000000     0.181170000000     0.0445833  
C        C      0.968810000000     0.471620000000     0.182300000000     0.0445833  
C        C      0.221990000000     0.471890000000     0.181810000000     0.0445833  
C        C      0.475630000000     0.471040000000     0.180590000000     0.0445833  
C        C      0.309420000000     0.471440000000     0.180960000000     0.0445833  
C        C      0.234240000000     0.391060000000     0.683880000000     0.0445833  
C        C      0.653200000000     0.995890000000     0.374260000000     0.0445833  
C        C      0.234780000000     0.332420000000     0.625160000000     0.0445833  
C        C      0.237040000000     0.221920000000     0.512280000000     0.0445833  
C        C      0.238200000000     0.163870000000     0.453000000000     0.0445833  
C        C      0.186150000000     0.283170000000     0.509130000000     0.0445833  
C        C      0.286610000000     0.216800000000     0.573030000000     0.0445833  
C        C      0.285390000000     0.270980000000     0.628510000000     0.0445833  
C        C      0.185070000000     0.337420000000     0.564540000000     0.0445833  
C        C      0.906680000000     0.964480000000     0.337950000000     0.0445833  
C        C      0.238900000000     0.165160000000     0.183790000000     0.0445833  
C        C      0.902030000000     0.490640000000     0.873310000000     0.0445833  
C        C      0.238250000000     0.223400000000     0.124950000000     0.0445833  
C        C      0.235840000000     0.332800000000     0.011460000000     0.0445833  
C        C      0.234930000000     0.390970000000     0.952520000000     0.0445833  
C        C      0.296470000000     0.280700000000     0.016750000000     0.0445833  
C        C      0.176210000000     0.328890000000     0.063580000000     0.0445833  
C        C      0.177700000000     0.275570000000     0.119720000000     0.0445833  
C        C      0.297590000000     0.226840000000     0.072460000000     0.0445833  
C        C      0.566740000000     0.593000000000     0.801590000000     0.0445833  
C        C      0.901670000000     0.563450000000     0.762960000000     0.0445833  
C        C      0.820110000000     0.564370000000     0.763730000000     0.0445833  
C        C      0.234550000000     0.664510000000     0.683240000000     0.0445833  
C        C      0.571680000000     0.997500000000     0.375510000000     0.0445833  
C        C      0.235510000000     0.722540000000     0.624150000000     0.0445833  
C        C      0.237840000000     0.832320000000     0.510910000000     0.0445833  
C        C      0.238600000000     0.890770000000     0.452210000000     0.0445833  
C        C      0.176270000000     0.781360000000     0.517180000000     0.0445833  
C        C      0.298540000000     0.826960000000     0.561800000000     0.0445833  
C        C      0.297190000000     0.773370000000     0.617750000000     0.0445833  
C        C      0.175190000000     0.727320000000     0.572760000000     0.0445833  
C        C      0.906600000000     0.091800000000     0.296170000000     0.0445833  
C        C      0.825050000000     0.091170000000     0.294660000000     0.0445833  
C        C      0.825120000000     0.964540000000     0.338300000000     0.0445833  
C        C      0.571160000000     0.058620000000     0.258610000000     0.0445833  
C        C      0.652760000000     0.059160000000     0.258530000000     0.0445833  
C        C      0.238780000000     0.891400000000     0.183500000000     0.0445833  
C        C      0.820490000000     0.489900000000     0.872970000000     0.0445833  
C        C      0.238090000000     0.832800000000     0.124710000000     0.0445833  
C        C      0.235360000000     0.722310000000     0.011790000000     0.0445833  
C        C      0.234230000000     0.664150000000     0.952610000000     0.0445833  
C        C      0.285870000000     0.783840000000     0.008230000000     0.0445833  
C        C      0.186400000000     0.716920000000     0.072960000000     0.0445833  
C        C      0.187830000000     0.771100000000     0.128430000000     0.0445833  
C        C      0.287180000000     0.838080000000     0.063650000000     0.0445833  
C        C      0.566400000000     0.463840000000     0.837600000000     0.0445833  
C        C      0.647920000000     0.463850000000     0.838400000000     0.0445833  
C        C      0.648340000000     0.592680000000     0.801250000000     0.0445833  
C        C      0.529170000000     0.028280000000     0.317380000000     0.0445833  
C        C      0.036260000000     0.028300000000     0.317600000000     0.0445833  
C        C      0.441930000000     0.028270000000     0.317780000000     0.0445833  
C        C      0.695310000000     0.027400000000     0.316190000000     0.0445833  
C        C      0.948950000000     0.028250000000     0.317350000000     0.0445833  
C        C      0.782770000000     0.027730000000     0.316260000000     0.0445833  
C        C      0.944010000000     0.527210000000     0.818140000000     0.0445833  
C        C      0.436890000000     0.528260000000     0.818590000000     0.0445833  
C        C      0.031160000000     0.527540000000     0.818100000000     0.0445833  
C        C      0.777970000000     0.527410000000     0.818690000000     0.0445833  
C        C      0.524250000000     0.528390000000     0.819230000000     0.0445833  
C        C      0.690450000000     0.528070000000     0.819560000000     0.0445833  
O        O      0.714830000000     0.053800000000     0.543040000000    -0.327552   
O        O      0.811120000000     0.390150000000     0.321840000000    -0.327552   
O        O      0.806900000000     0.114430000000     0.602180000000    -0.327552   
O        O      0.719550000000     0.328900000000     0.262520000000    -0.327552   
O        O      0.926790000000     0.032850000000     0.680910000000    -0.327552   
O        O      0.812010000000     0.390160000000     0.042740000000    -0.327552   
O        O      0.715840000000     0.052050000000     0.821960000000    -0.327552   
O        O      0.720630000000     0.328630000000     0.102210000000    -0.327552   
O        O      0.807130000000     0.113590000000     0.762340000000    -0.327552   
O        O      0.599920000000     0.409520000000     0.181870000000    -0.327552   
O        O      0.715260000000     0.891080000000     0.541960000000    -0.327552   
O        O      0.811400000000     0.552880000000     0.321370000000    -0.327552   
O        O      0.806700000000     0.829410000000     0.601240000000    -0.327552   
O        O      0.719960000000     0.614110000000     0.261660000000    -0.327552   
O        O      0.926840000000     0.909620000000     0.682260000000    -0.327552   
O        O      0.811560000000     0.553050000000     0.042560000000    -0.327552   
O        O      0.715600000000     0.889420000000     0.821270000000    -0.327552   
O        O      0.719600000000     0.613940000000     0.101600000000    -0.327552   
O        O      0.806890000000     0.828170000000     0.761590000000    -0.327552   
O        O      0.599820000000     0.532730000000     0.181000000000    -0.327552   
O        O      0.760880000000     0.971400000000     0.681960000000    -0.327552   
O        O      0.594550000000     0.972710000000     0.622100000000    -0.327552   
O        O      0.594910000000     0.970000000000     0.742530000000    -0.327552   
O        O      0.765910000000     0.471400000000     0.182020000000    -0.327552   
O        O      0.932140000000     0.473020000000     0.122040000000    -0.327552   
O        O      0.931990000000     0.470090000000     0.242480000000    -0.327552   
O        O      0.284260000000     0.108520000000     0.457880000000    -0.327552   
O        O      0.188380000000     0.446550000000     0.678670000000    -0.327552   
O        O      0.192940000000     0.170170000000     0.398420000000    -0.327552   
O        O      0.279920000000     0.385210000000     0.738220000000    -0.327552   
O        O      0.073050000000     0.089910000000     0.317020000000    -0.327552   
O        O      0.188650000000     0.446010000000     0.957410000000    -0.327552   
O        O      0.284630000000     0.109710000000     0.178580000000    -0.327552   
O        O      0.280700000000     0.385270000000     0.898330000000    -0.327552   
O        O      0.193350000000     0.171100000000     0.238130000000    -0.327552   
O        O      0.400180000000     0.466560000000     0.818810000000    -0.327552   
O        O      0.284940000000     0.945760000000     0.457120000000    -0.327552   
O        O      0.188430000000     0.609320000000     0.678340000000    -0.327552   
O        O      0.192660000000     0.885290000000     0.398120000000    -0.327552   
O        O      0.280070000000     0.670500000000     0.737610000000    -0.327552   
O        O      0.073070000000     0.966680000000     0.318390000000    -0.327552   
O        O      0.188390000000     0.608660000000     0.957660000000    -0.327552   
O        O      0.284470000000     0.946990000000     0.178230000000    -0.327552   
O        O      0.279480000000     0.670410000000     0.898020000000    -0.327552   
O        O      0.193380000000     0.885380000000     0.238020000000    -0.327552   
O        O      0.399920000000     0.589770000000     0.817850000000    -0.327552   
O        O      0.239030000000     0.027970000000     0.317980000000    -0.327552   
O        O      0.405330000000     0.026980000000     0.378100000000    -0.327552   
O        O      0.405000000000     0.029330000000     0.257670000000    -0.327552   
O        O      0.234050000000     0.527840000000     0.818060000000    -0.327552   
O        O      0.067920000000     0.526100000000     0.878310000000    -0.327552   
O        O      0.067880000000     0.529150000000     0.757870000000    -0.327552   


