data_FERHAN_original

_audit_creation_method RASPA-1.0
_audit_creation_date 2022-1-30
_audit_author_name 'Felipe Lopes de Oliveira <felipe.lopes.oliveira@ibm.com>'

_cell_length_a    17.1031
_cell_length_b    17.1031
_cell_length_c    17.1031
_cell_angle_alpha 87.6667
_cell_angle_beta  87.6667
_cell_angle_gamma 87.6667
_cell_volume      4990.82

_symmetry_cell_setting          triclinic
_symmetry_space_group_name_Hall 'P 1'
_symmetry_space_group_name_H-M  'P 1'
_symmetry_Int_Tables_number     1

_symmetry_equiv_pos_as_xyz 'x,y,z'

loop_
_atom_site_label
_atom_site_type_symbol
_atom_site_fract_x
_atom_site_fract_y
_atom_site_fract_z
_atom_site_charge
Zn       Zn     0.884250000000     0.884280000000     0.753740000000     0.469569   
Zn       Zn     0.753740000000     0.884250000000     0.884280000000     0.469569   
Zn       Zn     0.884280000000     0.753740000000     0.884250000000     0.469569   
Zn       Zn     0.753470000000     0.753470000000     0.753470000000     0.469569   
Zn       Zn     0.115750000000     0.115720000000     0.246260000000     0.469569   
Zn       Zn     0.246260000000     0.115750000000     0.115720000000     0.469569   
Zn       Zn     0.115720000000     0.246260000000     0.115750000000     0.469569   
Zn       Zn     0.246530000000     0.246530000000     0.246530000000     0.469569   
H        H      0.908600000000     0.914000000000     0.503300000000     0.0792352  
H        H      0.762100000000     0.731700000000     0.386300000000     0.0792352  
H        H      0.770200000000     0.729000000000     0.521600000000     0.0792352  
H        H      0.990100000000     0.014300000000     0.342800000000     0.0792352  
H        H      0.949100000000     0.000700000000     0.427700000000     0.0792352  
H        H      0.016100000000     0.940100000000     0.397000000000     0.0792352  
H        H      0.717800000000     0.884100000000     0.134200000000     0.0792352  
H        H      0.923800000000     0.751600000000     0.258100000000     0.0792352  
H        H      0.916200000000     0.749500000000     0.122600000000     0.0792352  
H        H      0.608700000000     0.963000000000     0.281400000000     0.0792352  
H        H      0.660300000000     0.972200000000     0.201700000000     0.0792352  
H        H      0.613000000000     0.894300000000     0.220400000000     0.0792352  
H        H      0.503300000000     0.908600000000     0.914000000000     0.0792352  
H        H      0.386300000000     0.762100000000     0.731700000000     0.0792352  
H        H      0.521600000000     0.770200000000     0.729000000000     0.0792352  
H        H      0.342800000000     0.990100000000     0.014300000000     0.0792352  
H        H      0.427700000000     0.949100000000     0.000700000000     0.0792352  
H        H      0.397000000000     0.016100000000     0.940100000000     0.0792352  
H        H      0.134200000000     0.717800000000     0.884100000000     0.0792352  
H        H      0.258100000000     0.923800000000     0.751600000000     0.0792352  
H        H      0.122600000000     0.916200000000     0.749500000000     0.0792352  
H        H      0.281400000000     0.608700000000     0.963000000000     0.0792352  
H        H      0.201700000000     0.660300000000     0.972200000000     0.0792352  
H        H      0.220400000000     0.613000000000     0.894300000000     0.0792352  
H        H      0.914000000000     0.503300000000     0.908600000000     0.0792352  
H        H      0.731700000000     0.386300000000     0.762100000000     0.0792352  
H        H      0.729000000000     0.521600000000     0.770200000000     0.0792352  
H        H      0.014300000000     0.342800000000     0.990100000000     0.0792352  
H        H      0.000700000000     0.427700000000     0.949100000000     0.0792352  
H        H      0.940100000000     0.397000000000     0.016100000000     0.0792352  
H        H      0.884100000000     0.134200000000     0.717800000000     0.0792352  
H        H      0.751600000000     0.258100000000     0.923800000000     0.0792352  
H        H      0.749500000000     0.122600000000     0.916200000000     0.0792352  
H        H      0.963000000000     0.281400000000     0.608700000000     0.0792352  
H        H      0.972200000000     0.201700000000     0.660300000000     0.0792352  
H        H      0.894300000000     0.220400000000     0.613000000000     0.0792352  
H        H      0.091400000000     0.086000000000     0.496700000000     0.0792352  
H        H      0.237900000000     0.268300000000     0.613700000000     0.0792352  
H        H      0.229800000000     0.271000000000     0.478400000000     0.0792352  
H        H      0.009900000000     0.985700000000     0.657200000000     0.0792352  
H        H      0.050900000000     0.999300000000     0.572300000000     0.0792352  
H        H      0.983900000000     0.059900000000     0.603000000000     0.0792352  
H        H      0.282200000000     0.115900000000     0.865800000000     0.0792352  
H        H      0.076200000000     0.248400000000     0.741900000000     0.0792352  
H        H      0.083800000000     0.250500000000     0.877400000000     0.0792352  
H        H      0.391300000000     0.037000000000     0.718600000000     0.0792352  
H        H      0.339700000000     0.027800000000     0.798300000000     0.0792352  
H        H      0.387000000000     0.105700000000     0.779600000000     0.0792352  
H        H      0.496700000000     0.091400000000     0.086000000000     0.0792352  
H        H      0.613700000000     0.237900000000     0.268300000000     0.0792352  
H        H      0.478400000000     0.229800000000     0.271000000000     0.0792352  
H        H      0.657200000000     0.009900000000     0.985700000000     0.0792352  
H        H      0.572300000000     0.050900000000     0.999300000000     0.0792352  
H        H      0.603000000000     0.983900000000     0.059900000000     0.0792352  
H        H      0.865800000000     0.282200000000     0.115900000000     0.0792352  
H        H      0.741900000000     0.076200000000     0.248400000000     0.0792352  
H        H      0.877400000000     0.083800000000     0.250500000000     0.0792352  
H        H      0.718600000000     0.391300000000     0.037000000000     0.0792352  
H        H      0.798300000000     0.339700000000     0.027800000000     0.0792352  
H        H      0.779600000000     0.387000000000     0.105700000000     0.0792352  
H        H      0.086000000000     0.496700000000     0.091400000000     0.0792352  
H        H      0.268300000000     0.613700000000     0.237900000000     0.0792352  
H        H      0.271000000000     0.478400000000     0.229800000000     0.0792352  
H        H      0.985700000000     0.657200000000     0.009900000000     0.0792352  
H        H      0.999300000000     0.572300000000     0.050900000000     0.0792352  
H        H      0.059900000000     0.603000000000     0.983900000000     0.0792352  
H        H      0.115900000000     0.865800000000     0.282200000000     0.0792352  
H        H      0.248400000000     0.741900000000     0.076200000000     0.0792352  
H        H      0.250500000000     0.877400000000     0.083800000000     0.0792352  
H        H      0.037000000000     0.718600000000     0.391300000000     0.0792352  
H        H      0.027800000000     0.798300000000     0.339700000000     0.0792352  
H        H      0.105700000000     0.779600000000     0.387000000000     0.0792352  
C        C      0.842900000000     0.820500000000     0.612400000000     0.00897295 
C        C      0.839200000000     0.821400000000     0.524900000000     0.00897295 
C        C      0.878900000000     0.876600000000     0.479200000000     0.00897295 
C        C      0.875600000000     0.877200000000     0.398800000000     0.00897295 
C        C      0.832200000000     0.822200000000     0.363700000000     0.00897295 
C        C      0.792800000000     0.768600000000     0.409900000000     0.00897295 
C        C      0.796900000000     0.767500000000     0.490300000000     0.00897295 
C        C      0.972000000000     0.974000000000     0.382000000000     0.00897295 
C        C      0.810800000000     0.819500000000     0.028400000000     0.00897295 
C        C      0.816900000000     0.819000000000     0.115200000000     0.00897295 
C        C      0.760600000000     0.857800000000     0.159100000000     0.00897295 
C        C      0.765400000000     0.859500000000     0.239900000000     0.00897295 
C        C      0.827400000000     0.821800000000     0.276500000000     0.00897295 
C        C      0.882400000000     0.779900000000     0.232800000000     0.00897295 
C        C      0.877800000000     0.778400000000     0.152500000000     0.00897295 
C        C      0.642500000000     0.935200000000     0.243300000000     0.00897295 
C        C      0.612400000000     0.842900000000     0.820500000000     0.00897295 
C        C      0.524900000000     0.839200000000     0.821400000000     0.00897295 
C        C      0.479200000000     0.878900000000     0.876600000000     0.00897295 
C        C      0.398800000000     0.875600000000     0.877200000000     0.00897295 
C        C      0.363700000000     0.832200000000     0.822200000000     0.00897295 
C        C      0.409900000000     0.792800000000     0.768600000000     0.00897295 
C        C      0.490300000000     0.796900000000     0.767500000000     0.00897295 
C        C      0.382000000000     0.972000000000     0.974000000000     0.00897295 
C        C      0.028400000000     0.810800000000     0.819500000000     0.00897295 
C        C      0.115200000000     0.816900000000     0.819000000000     0.00897295 
C        C      0.159100000000     0.760600000000     0.857800000000     0.00897295 
C        C      0.239900000000     0.765400000000     0.859500000000     0.00897295 
C        C      0.276500000000     0.827400000000     0.821800000000     0.00897295 
C        C      0.232800000000     0.882400000000     0.779900000000     0.00897295 
C        C      0.152500000000     0.877800000000     0.778400000000     0.00897295 
C        C      0.243300000000     0.642500000000     0.935200000000     0.00897295 
C        C      0.820500000000     0.612400000000     0.842900000000     0.00897295 
C        C      0.821400000000     0.524900000000     0.839200000000     0.00897295 
C        C      0.876600000000     0.479200000000     0.878900000000     0.00897295 
C        C      0.877200000000     0.398800000000     0.875600000000     0.00897295 
C        C      0.822200000000     0.363700000000     0.832200000000     0.00897295 
C        C      0.768600000000     0.409900000000     0.792800000000     0.00897295 
C        C      0.767500000000     0.490300000000     0.796900000000     0.00897295 
C        C      0.974000000000     0.382000000000     0.972000000000     0.00897295 
C        C      0.819500000000     0.028400000000     0.810800000000     0.00897295 
C        C      0.819000000000     0.115200000000     0.816900000000     0.00897295 
C        C      0.857800000000     0.159100000000     0.760600000000     0.00897295 
C        C      0.859500000000     0.239900000000     0.765400000000     0.00897295 
C        C      0.821800000000     0.276500000000     0.827400000000     0.00897295 
C        C      0.779900000000     0.232800000000     0.882400000000     0.00897295 
C        C      0.778400000000     0.152500000000     0.877800000000     0.00897295 
C        C      0.935200000000     0.243300000000     0.642500000000     0.00897295 
C        C      0.157100000000     0.179500000000     0.387600000000     0.00897295 
C        C      0.160800000000     0.178600000000     0.475100000000     0.00897295 
C        C      0.121100000000     0.123400000000     0.520800000000     0.00897295 
C        C      0.124400000000     0.122800000000     0.601200000000     0.00897295 
C        C      0.167800000000     0.177800000000     0.636300000000     0.00897295 
C        C      0.207200000000     0.231400000000     0.590100000000     0.00897295 
C        C      0.203100000000     0.232500000000     0.509700000000     0.00897295 
C        C      0.028000000000     0.026000000000     0.618000000000     0.00897295 
C        C      0.189200000000     0.180500000000     0.971600000000     0.00897295 
C        C      0.183100000000     0.181000000000     0.884800000000     0.00897295 
C        C      0.239400000000     0.142200000000     0.840900000000     0.00897295 
C        C      0.234600000000     0.140500000000     0.760100000000     0.00897295 
C        C      0.172600000000     0.178200000000     0.723500000000     0.00897295 
C        C      0.117600000000     0.220100000000     0.767200000000     0.00897295 
C        C      0.122200000000     0.221600000000     0.847500000000     0.00897295 
C        C      0.357500000000     0.064800000000     0.756700000000     0.00897295 
C        C      0.387600000000     0.157100000000     0.179500000000     0.00897295 
C        C      0.475100000000     0.160800000000     0.178600000000     0.00897295 
C        C      0.520800000000     0.121100000000     0.123400000000     0.00897295 
C        C      0.601200000000     0.124400000000     0.122800000000     0.00897295 
C        C      0.636300000000     0.167800000000     0.177800000000     0.00897295 
C        C      0.590100000000     0.207200000000     0.231400000000     0.00897295 
C        C      0.509700000000     0.203100000000     0.232500000000     0.00897295 
C        C      0.618000000000     0.028000000000     0.026000000000     0.00897295 
C        C      0.971600000000     0.189200000000     0.180500000000     0.00897295 
C        C      0.884800000000     0.183100000000     0.181000000000     0.00897295 
C        C      0.840900000000     0.239400000000     0.142200000000     0.00897295 
C        C      0.760100000000     0.234600000000     0.140500000000     0.00897295 
C        C      0.723500000000     0.172600000000     0.178200000000     0.00897295 
C        C      0.767200000000     0.117600000000     0.220100000000     0.00897295 
C        C      0.847500000000     0.122200000000     0.221600000000     0.00897295 
C        C      0.756700000000     0.357500000000     0.064800000000     0.00897295 
C        C      0.179500000000     0.387600000000     0.157100000000     0.00897295 
C        C      0.178600000000     0.475100000000     0.160800000000     0.00897295 
C        C      0.123400000000     0.520800000000     0.121100000000     0.00897295 
C        C      0.122800000000     0.601200000000     0.124400000000     0.00897295 
C        C      0.177800000000     0.636300000000     0.167800000000     0.00897295 
C        C      0.231400000000     0.590100000000     0.207200000000     0.00897295 
C        C      0.232500000000     0.509700000000     0.203100000000     0.00897295 
C        C      0.026000000000     0.618000000000     0.028000000000     0.00897295 
C        C      0.180500000000     0.971600000000     0.189200000000     0.00897295 
C        C      0.181000000000     0.884800000000     0.183100000000     0.00897295 
C        C      0.142200000000     0.840900000000     0.239400000000     0.00897295 
C        C      0.140500000000     0.760100000000     0.234600000000     0.00897295 
C        C      0.178200000000     0.723500000000     0.172600000000     0.00897295 
C        C      0.220100000000     0.767200000000     0.117600000000     0.00897295 
C        C      0.221600000000     0.847500000000     0.122200000000     0.00897295 
C        C      0.064800000000     0.756700000000     0.357500000000     0.00897295 
O        O      0.810600000000     0.769300000000     0.652100000000    -0.271655   
O        O      0.881000000000     0.871900000000     0.641100000000    -0.271655   
O        O      0.913000000000     0.929000000000     0.348000000000    -0.271655   
O        O      0.765100000000     0.868600000000     0.994700000000    -0.271655   
O        O      0.851100000000     0.766800000000     0.996400000000    -0.271655   
O        O      0.710300000000     0.899300000000     0.282200000000    -0.271655   
O        O      0.652100000000     0.810600000000     0.769300000000    -0.271655   
O        O      0.641100000000     0.881000000000     0.871900000000    -0.271655   
O        O      0.348000000000     0.913000000000     0.929000000000    -0.271655   
O        O      0.994700000000     0.765100000000     0.868600000000    -0.271655   
O        O      0.996400000000     0.851100000000     0.766800000000    -0.271655   
O        O      0.282200000000     0.710300000000     0.899300000000    -0.271655   
O        O      0.769300000000     0.652100000000     0.810600000000    -0.271655   
O        O      0.871900000000     0.641100000000     0.881000000000    -0.271655   
O        O      0.929000000000     0.348000000000     0.913000000000    -0.271655   
O        O      0.868600000000     0.994700000000     0.765100000000    -0.271655   
O        O      0.766800000000     0.996400000000     0.851100000000    -0.271655   
O        O      0.899300000000     0.282200000000     0.710300000000    -0.271655   
O        O      0.818100000000     0.818100000000     0.818100000000    -0.271655   
O        O      0.189400000000     0.230700000000     0.347900000000    -0.271655   
O        O      0.119000000000     0.128100000000     0.358900000000    -0.271655   
O        O      0.087000000000     0.071000000000     0.652000000000    -0.271655   
O        O      0.234900000000     0.131400000000     0.005300000000    -0.271655   
O        O      0.148900000000     0.233200000000     0.003600000000    -0.271655   
O        O      0.289700000000     0.100700000000     0.717800000000    -0.271655   
O        O      0.347900000000     0.189400000000     0.230700000000    -0.271655   
O        O      0.358900000000     0.119000000000     0.128100000000    -0.271655   
O        O      0.652000000000     0.087000000000     0.071000000000    -0.271655   
O        O      0.005300000000     0.234900000000     0.131400000000    -0.271655   
O        O      0.003600000000     0.148900000000     0.233200000000    -0.271655   
O        O      0.717800000000     0.289700000000     0.100700000000    -0.271655   
O        O      0.230700000000     0.347900000000     0.189400000000    -0.271655   
O        O      0.128100000000     0.358900000000     0.119000000000    -0.271655   
O        O      0.071000000000     0.652000000000     0.087000000000    -0.271655   
O        O      0.131400000000     0.005300000000     0.234900000000    -0.271655   
O        O      0.233200000000     0.003600000000     0.148900000000    -0.271655   
O        O      0.100700000000     0.717800000000     0.289700000000    -0.271655   
O        O      0.181900000000     0.181900000000     0.181900000000    -0.271655   


