data_FIJCUX01_original

_audit_creation_method RASPA-1.0
_audit_creation_date 2022-1-29
_audit_author_name 'Felipe Lopes de Oliveira <felipe.lopes.oliveira@ibm.com>'

_cell_length_a    15.2605
_cell_length_b    17.7374
_cell_length_c    18.2635
_cell_angle_alpha 113.071
_cell_angle_beta  90
_cell_angle_gamma 90
_cell_volume      4548.2

_symmetry_cell_setting          triclinic
_symmetry_space_group_name_Hall 'P 1'
_symmetry_space_group_name_H-M  'P 1'
_symmetry_Int_Tables_number     1

_symmetry_equiv_pos_as_xyz 'x,y,z'

loop_
_atom_site_label
_atom_site_type_symbol
_atom_site_fract_x
_atom_site_fract_y
_atom_site_fract_z
_atom_site_charge
Zn       Zn     0.495400000000     0.500250000000     0.834240000000     0.478003   
Zn       Zn     0.096390000000     0.001990000000     0.166180000000     0.478003   
Zn       Zn     0.596030000000     0.497730000000     0.995210000000     0.478003   
Zn       Zn     0.906840000000     0.998050000000     0.167140000000     0.478003   
Zn       Zn     0.995400000000     0.999750000000     0.665760000000     0.478003   
Zn       Zn     0.596390000000     0.498010000000     0.333820000000     0.478003   
Zn       Zn     0.096030000000     0.002270000000     0.504790000000     0.478003   
Zn       Zn     0.406840000000     0.501950000000     0.332860000000     0.478003   
Zn       Zn     0.504600000000     0.499750000000     0.165760000000     0.478003   
Zn       Zn     0.903610000000     0.998010000000     0.833820000000     0.478003   
Zn       Zn     0.403970000000     0.502270000000     0.004790000000     0.478003   
Zn       Zn     0.093160000000     0.001950000000     0.832860000000     0.478003   
Zn       Zn     0.004600000000     0.000250000000     0.334240000000     0.478003   
Zn       Zn     0.403610000000     0.501990000000     0.666180000000     0.478003   
Zn       Zn     0.903970000000     0.997730000000     0.495210000000     0.478003   
Zn       Zn     0.593160000000     0.498050000000     0.667140000000     0.478003   
Zn       Zn     0.000000000000     0.000000000000     0.000000000000     0.478003   
Zn       Zn     0.500000000000     0.500000000000     0.500000000000     0.478003   
H        H      0.495100000000     0.392800000000     0.688100000000     0.0797077  
H        H      0.499900000000     0.607600000000     0.979900000000     0.0797077  
H        H      0.997200000000     0.107000000000     0.145400000000     0.0797077  
H        H      0.824400000000     0.167700000000     0.798000000000     0.0797077  
H        H      0.748200000000     0.280900000000     0.880300000000     0.0797077  
H        H      0.606200000000     0.278100000000     0.694300000000     0.0797077  
H        H      0.687900000000     0.167900000000     0.610600000000     0.0797077  
H        H      0.119500000000     0.782500000000     0.870600000000     0.0797077  
H        H      0.206300000000     0.676600000000     0.787100000000     0.0797077  
H        H      0.381700000000     0.720100000000     0.963100000000     0.0797077  
H        H      0.294800000000     0.826700000000     0.046700000000     0.0797077  
H        H      0.677200000000     0.666500000000     0.973600000000     0.0797077  
H        H      0.746800000000     0.785900000000     0.054700000000     0.0797077  
H        H      0.823300000000     0.826200000000     0.863100000000     0.0797077  
H        H      0.752500000000     0.708300000000     0.781900000000     0.0797077  
H        H      0.995100000000     0.107200000000     0.811900000000     0.0797077  
H        H      0.999900000000     0.892400000000     0.520100000000     0.0797077  
H        H      0.497200000000     0.393000000000     0.354600000000     0.0797077  
H        H      0.324400000000     0.332300000000     0.702000000000     0.0797077  
H        H      0.248200000000     0.219100000000     0.619700000000     0.0797077  
H        H      0.106200000000     0.221900000000     0.805700000000     0.0797077  
H        H      0.187900000000     0.332100000000     0.889400000000     0.0797077  
H        H      0.619500000000     0.717500000000     0.629400000000     0.0797077  
H        H      0.706300000000     0.823400000000     0.712900000000     0.0797077  
H        H      0.881700000000     0.779900000000     0.536900000000     0.0797077  
H        H      0.794800000000     0.673300000000     0.453300000000     0.0797077  
H        H      0.177200000000     0.833500000000     0.526400000000     0.0797077  
H        H      0.246800000000     0.714100000000     0.445300000000     0.0797077  
H        H      0.323300000000     0.673800000000     0.636900000000     0.0797077  
H        H      0.252500000000     0.791700000000     0.718100000000     0.0797077  
H        H      0.504900000000     0.607200000000     0.311900000000     0.0797077  
H        H      0.500100000000     0.392400000000     0.020100000000     0.0797077  
H        H      0.002800000000     0.893000000000     0.854600000000     0.0797077  
H        H      0.175600000000     0.832300000000     0.202000000000     0.0797077  
H        H      0.251800000000     0.719100000000     0.119700000000     0.0797077  
H        H      0.393800000000     0.721900000000     0.305700000000     0.0797077  
H        H      0.312100000000     0.832100000000     0.389400000000     0.0797077  
H        H      0.880500000000     0.217500000000     0.129400000000     0.0797077  
H        H      0.793700000000     0.323400000000     0.212900000000     0.0797077  
H        H      0.618300000000     0.279900000000     0.036900000000     0.0797077  
H        H      0.705200000000     0.173300000000     0.953300000000     0.0797077  
H        H      0.322800000000     0.333500000000     0.026400000000     0.0797077  
H        H      0.253200000000     0.214100000000     0.945300000000     0.0797077  
H        H      0.176700000000     0.173800000000     0.136900000000     0.0797077  
H        H      0.247500000000     0.291700000000     0.218100000000     0.0797077  
H        H      0.004900000000     0.892800000000     0.188100000000     0.0797077  
H        H      0.000100000000     0.107600000000     0.479900000000     0.0797077  
H        H      0.502800000000     0.607000000000     0.645400000000     0.0797077  
H        H      0.675600000000     0.667700000000     0.298000000000     0.0797077  
H        H      0.751800000000     0.780900000000     0.380300000000     0.0797077  
H        H      0.893800000000     0.778100000000     0.194300000000     0.0797077  
H        H      0.812100000000     0.667900000000     0.110600000000     0.0797077  
H        H      0.380500000000     0.282500000000     0.370600000000     0.0797077  
H        H      0.293700000000     0.176600000000     0.287100000000     0.0797077  
H        H      0.118300000000     0.220100000000     0.463100000000     0.0797077  
H        H      0.205200000000     0.326700000000     0.546700000000     0.0797077  
H        H      0.822800000000     0.166500000000     0.473600000000     0.0797077  
H        H      0.753200000000     0.285900000000     0.554700000000     0.0797077  
H        H      0.676700000000     0.326200000000     0.363100000000     0.0797077  
H        H      0.747500000000     0.208300000000     0.281900000000     0.0797077  
C        C      0.824900000000     0.090500000000     0.642200000000     0.0562411  
C        C      0.766300000000     0.157600000000     0.695200000000     0.0562411  
C        C      0.782100000000     0.191000000000     0.776700000000     0.0562411  
C        C      0.735900000000     0.258300000000     0.826100000000     0.0562411  
C        C      0.670800000000     0.292900000000     0.795600000000     0.0562411  
C        C      0.623900000000     0.368800000000     0.848900000000     0.0562411  
C        C      0.651500000000     0.257300000000     0.714900000000     0.0562411  
C        C      0.700000000000     0.190600000000     0.664900000000     0.0562411  
C        C      0.141700000000     0.883400000000     0.021200000000     0.0562411  
C        C      0.198500000000     0.815700000000     0.967300000000     0.0562411  
C        C      0.172200000000     0.770300000000     0.889100000000     0.0562411  
C        C      0.224200000000     0.707100000000     0.839100000000     0.0562411  
C        C      0.303400000000     0.689300000000     0.866600000000     0.0562411  
C        C      0.360000000000     0.621400000000     0.811900000000     0.0562411  
C        C      0.329500000000     0.733100000000     0.944400000000     0.0562411  
C        C      0.277100000000     0.796700000000     0.994600000000     0.0562411  
C        C      0.659200000000     0.599600000000     0.816500000000     0.0562411  
C        C      0.707100000000     0.675800000000     0.869500000000     0.0562411  
C        C      0.705900000000     0.698700000000     0.951400000000     0.0562411  
C        C      0.748100000000     0.770100000000     0.999800000000     0.0562411  
C        C      0.792200000000     0.818500000000     0.967800000000     0.0562411  
C        C      0.841100000000     0.893700000000     0.019800000000     0.0562411  
C        C      0.793700000000     0.794500000000     0.885400000000     0.0562411  
C        C      0.751400000000     0.723900000000     0.836800000000     0.0562411  
C        C      0.324900000000     0.409500000000     0.857800000000     0.0562411  
C        C      0.266300000000     0.342400000000     0.804800000000     0.0562411  
C        C      0.282100000000     0.309000000000     0.723300000000     0.0562411  
C        C      0.235900000000     0.241700000000     0.673900000000     0.0562411  
C        C      0.170800000000     0.207100000000     0.704400000000     0.0562411  
C        C      0.123900000000     0.131200000000     0.651100000000     0.0562411  
C        C      0.151500000000     0.242700000000     0.785100000000     0.0562411  
C        C      0.200000000000     0.309400000000     0.835100000000     0.0562411  
C        C      0.641700000000     0.616600000000     0.478800000000     0.0562411  
C        C      0.698500000000     0.684300000000     0.532700000000     0.0562411  
C        C      0.672200000000     0.729700000000     0.610900000000     0.0562411  
C        C      0.724200000000     0.792900000000     0.660900000000     0.0562411  
C        C      0.803400000000     0.810700000000     0.633400000000     0.0562411  
C        C      0.860000000000     0.878600000000     0.688100000000     0.0562411  
C        C      0.829500000000     0.766900000000     0.555600000000     0.0562411  
C        C      0.777100000000     0.703300000000     0.505400000000     0.0562411  
C        C      0.159200000000     0.900400000000     0.683500000000     0.0562411  
C        C      0.207100000000     0.824200000000     0.630500000000     0.0562411  
C        C      0.205900000000     0.801300000000     0.548600000000     0.0562411  
C        C      0.248100000000     0.729900000000     0.500200000000     0.0562411  
C        C      0.292200000000     0.681500000000     0.532200000000     0.0562411  
C        C      0.341100000000     0.606300000000     0.480200000000     0.0562411  
C        C      0.293700000000     0.705500000000     0.614600000000     0.0562411  
C        C      0.251400000000     0.776100000000     0.663200000000     0.0562411  
C        C      0.175100000000     0.909500000000     0.357800000000     0.0562411  
C        C      0.233700000000     0.842400000000     0.304800000000     0.0562411  
C        C      0.217900000000     0.809000000000     0.223300000000     0.0562411  
C        C      0.264100000000     0.741700000000     0.173900000000     0.0562411  
C        C      0.329200000000     0.707100000000     0.204400000000     0.0562411  
C        C      0.376100000000     0.631200000000     0.151100000000     0.0562411  
C        C      0.348500000000     0.742700000000     0.285100000000     0.0562411  
C        C      0.300000000000     0.809400000000     0.335100000000     0.0562411  
C        C      0.858300000000     0.116600000000     0.978800000000     0.0562411  
C        C      0.801500000000     0.184300000000     0.032700000000     0.0562411  
C        C      0.827800000000     0.229700000000     0.110900000000     0.0562411  
C        C      0.775800000000     0.292900000000     0.160900000000     0.0562411  
C        C      0.696600000000     0.310700000000     0.133400000000     0.0562411  
C        C      0.640000000000     0.378600000000     0.188100000000     0.0562411  
C        C      0.670500000000     0.266900000000     0.055600000000     0.0562411  
C        C      0.722900000000     0.203300000000     0.005400000000     0.0562411  
C        C      0.340800000000     0.400400000000     0.183500000000     0.0562411  
C        C      0.292900000000     0.324200000000     0.130500000000     0.0562411  
C        C      0.294100000000     0.301300000000     0.048600000000     0.0562411  
C        C      0.251900000000     0.229900000000     0.000200000000     0.0562411  
C        C      0.207800000000     0.181500000000     0.032200000000     0.0562411  
C        C      0.158900000000     0.106300000000     0.980200000000     0.0562411  
C        C      0.206300000000     0.205500000000     0.114600000000     0.0562411  
C        C      0.248600000000     0.276100000000     0.163200000000     0.0562411  
C        C      0.675100000000     0.590500000000     0.142200000000     0.0562411  
C        C      0.733700000000     0.657600000000     0.195200000000     0.0562411  
C        C      0.717900000000     0.691000000000     0.276700000000     0.0562411  
C        C      0.764100000000     0.758300000000     0.326100000000     0.0562411  
C        C      0.829200000000     0.792900000000     0.295600000000     0.0562411  
C        C      0.876100000000     0.868800000000     0.348900000000     0.0562411  
C        C      0.848500000000     0.757300000000     0.214900000000     0.0562411  
C        C      0.800000000000     0.690600000000     0.164900000000     0.0562411  
C        C      0.358300000000     0.383400000000     0.521200000000     0.0562411  
C        C      0.301500000000     0.315700000000     0.467300000000     0.0562411  
C        C      0.327800000000     0.270300000000     0.389100000000     0.0562411  
C        C      0.275800000000     0.207100000000     0.339100000000     0.0562411  
C        C      0.196600000000     0.189300000000     0.366600000000     0.0562411  
C        C      0.140000000000     0.121400000000     0.311900000000     0.0562411  
C        C      0.170500000000     0.233100000000     0.444400000000     0.0562411  
C        C      0.222900000000     0.296700000000     0.494600000000     0.0562411  
C        C      0.840800000000     0.099600000000     0.316500000000     0.0562411  
C        C      0.792900000000     0.175800000000     0.369500000000     0.0562411  
C        C      0.794100000000     0.198700000000     0.451400000000     0.0562411  
C        C      0.751900000000     0.270100000000     0.499800000000     0.0562411  
C        C      0.707800000000     0.318500000000     0.467800000000     0.0562411  
C        C      0.658900000000     0.393700000000     0.519800000000     0.0562411  
C        C      0.706300000000     0.294500000000     0.385400000000     0.0562411  
C        C      0.748600000000     0.223900000000     0.336800000000     0.0562411  
O        O      0.496470000000     0.452870000000     0.711310000000    -0.313094   
O        O      0.498190000000     0.547600000000     0.956680000000    -0.313094   
O        O      0.998700000000     0.046980000000     0.122140000000    -0.313094   
O        O      0.330350000000     0.583350000000     0.742190000000    -0.313094   
O        O      0.172260000000     0.923270000000     0.089970000000    -0.313094   
O        O      0.823530000000     0.075820000000     0.568060000000    -0.313094   
O        O      0.553840000000     0.388230000000     0.825390000000    -0.313094   
O        O      0.432290000000     0.608320000000     0.836530000000    -0.313094   
O        O      0.879700000000     0.934700000000     0.989140000000    -0.313094   
O        O      0.658740000000     0.408420000000     0.916140000000    -0.313094   
O        O      0.069280000000     0.895810000000     0.996370000000    -0.313094   
O        O      0.870650000000     0.053080000000     0.672950000000    -0.313094   
O        O      0.620700000000     0.557430000000     0.846390000000    -0.313094   
O        O      0.838500000000     0.909400000000     0.094300000000    -0.313094   
O        O      0.661550000000     0.585100000000     0.742350000000    -0.313094   
O        O      0.996470000000     0.047130000000     0.788690000000    -0.313094   
O        O      0.998190000000     0.952400000000     0.543320000000    -0.313094   
O        O      0.498700000000     0.453020000000     0.377860000000    -0.313094   
O        O      0.830350000000     0.916650000000     0.757810000000    -0.313094   
O        O      0.672260000000     0.576730000000     0.410030000000    -0.313094   
O        O      0.323530000000     0.424180000000     0.931940000000    -0.313094   
O        O      0.053840000000     0.111770000000     0.674610000000    -0.313094   
O        O      0.932290000000     0.891680000000     0.663470000000    -0.313094   
O        O      0.379700000000     0.565300000000     0.510860000000    -0.313094   
O        O      0.158740000000     0.091580000000     0.583860000000    -0.313094   
O        O      0.569280000000     0.604190000000     0.503630000000    -0.313094   
O        O      0.370650000000     0.446920000000     0.827050000000    -0.313094   
O        O      0.120700000000     0.942570000000     0.653610000000    -0.313094   
O        O      0.338500000000     0.590600000000     0.405700000000    -0.313094   
O        O      0.161550000000     0.914900000000     0.757650000000    -0.313094   
O        O      0.503530000000     0.547130000000     0.288690000000    -0.313094   
O        O      0.501810000000     0.452400000000     0.043320000000    -0.313094   
O        O      0.001300000000     0.953020000000     0.877860000000    -0.313094   
O        O      0.669650000000     0.416650000000     0.257810000000    -0.313094   
O        O      0.827740000000     0.076730000000     0.910030000000    -0.313094   
O        O      0.176470000000     0.924180000000     0.431940000000    -0.313094   
O        O      0.446160000000     0.611770000000     0.174610000000    -0.313094   
O        O      0.567710000000     0.391680000000     0.163470000000    -0.313094   
O        O      0.120300000000     0.065300000000     0.010860000000    -0.313094   
O        O      0.341260000000     0.591580000000     0.083860000000    -0.313094   
O        O      0.930720000000     0.104190000000     0.003630000000    -0.313094   
O        O      0.129350000000     0.946920000000     0.327050000000    -0.313094   
O        O      0.379300000000     0.442570000000     0.153610000000    -0.313094   
O        O      0.161500000000     0.090600000000     0.905700000000    -0.313094   
O        O      0.338450000000     0.414900000000     0.257650000000    -0.313094   
O        O      0.003530000000     0.952870000000     0.211310000000    -0.313094   
O        O      0.001810000000     0.047600000000     0.456680000000    -0.313094   
O        O      0.501300000000     0.546980000000     0.622140000000    -0.313094   
O        O      0.169650000000     0.083350000000     0.242190000000    -0.313094   
O        O      0.327740000000     0.423270000000     0.589970000000    -0.313094   
O        O      0.676470000000     0.575820000000     0.068060000000    -0.313094   
O        O      0.946160000000     0.888230000000     0.325390000000    -0.313094   
O        O      0.067710000000     0.108320000000     0.336530000000    -0.313094   
O        O      0.620300000000     0.434700000000     0.489140000000    -0.313094   
O        O      0.841260000000     0.908420000000     0.416140000000    -0.313094   
O        O      0.430720000000     0.395810000000     0.496370000000    -0.313094   
O        O      0.629350000000     0.553080000000     0.172950000000    -0.313094   
O        O      0.879300000000     0.057430000000     0.346390000000    -0.313094   
O        O      0.661500000000     0.409400000000     0.594300000000    -0.313094   
O        O      0.838450000000     0.085100000000     0.242350000000    -0.313094   


