data_FIPWUY_original

_audit_creation_method RASPA-1.0
_audit_creation_date 2022-1-31
_audit_author_name 'Felipe Lopes de Oliveira <felipe.lopes.oliveira@ibm.com>'

_cell_length_a    9.198
_cell_length_b    9.33
_cell_length_c    9.636
_cell_angle_alpha 90
_cell_angle_beta  118.48
_cell_angle_gamma 90
_cell_volume      726.863

_symmetry_cell_setting          triclinic
_symmetry_space_group_name_Hall 'P 1'
_symmetry_space_group_name_H-M  'P 1'
_symmetry_Int_Tables_number     1

_symmetry_equiv_pos_as_xyz 'x,y,z'

loop_
_atom_site_label
_atom_site_type_symbol
_atom_site_fract_x
_atom_site_fract_y
_atom_site_fract_z
_atom_site_charge
Zn       Zn     0.916010000000     0.440790000000     0.137120000000     0.383047   
Zn       Zn     0.083990000000     0.940790000000     0.862880000000     0.383047   
H        H      0.635100000000     0.508800000000     0.070000000000     0.0884357  
H        H      0.663100000000     0.366900000000     0.137800000000     0.0884357  
H        H      0.035200000000     0.743600000000     0.092900000000     0.0884357  
H        H      0.827300000000     0.571500000000     0.529400000000     0.0884357  
H        H      0.851200000000     0.738000000000     0.543100000000     0.0884357  
H        H      0.105800000000     0.432100000000     0.656200000000     0.0884357  
H        H      0.838000000000     0.448000000000     0.772400000000     0.0884357  
H        H      0.128600000000     0.719100000000     0.624200000000     0.0884357  
H        H      0.330700000000     0.288600000000     0.785400000000     0.0884357  
H        H      0.363400000000     0.349400000000     0.949700000000     0.0884357  
H        H      0.582500000000     0.414100000000     0.838100000000     0.0884357  
H        H      0.595300000000     0.264400000000     0.915000000000     0.0884357  
H        H      0.364900000000     0.008800000000     0.930000000000     0.0884357  
H        H      0.336900000000     0.866900000000     0.862200000000     0.0884357  
H        H      0.964800000000     0.243600000000     0.907100000000     0.0884357  
H        H      0.172700000000     0.071500000000     0.470600000000     0.0884357  
H        H      0.148800000000     0.238000000000     0.456900000000     0.0884357  
H        H      0.894200000000     0.932100000000     0.343800000000     0.0884357  
H        H      0.162000000000     0.948000000000     0.227600000000     0.0884357  
H        H      0.871400000000     0.219100000000     0.375800000000     0.0884357  
H        H      0.669300000000     0.788600000000     0.214600000000     0.0884357  
H        H      0.636600000000     0.849400000000     0.050300000000     0.0884357  
H        H      0.417500000000     0.914100000000     0.161900000000     0.0884357  
H        H      0.404700000000     0.764400000000     0.085000000000     0.0884357  
C        C      0.994000000000     0.694900000000     0.997300000000     0.0380615  
C        C      0.902300000000     0.647500000000     0.591100000000     0.0380615  
C        C      0.886100000000     0.533600000000     0.822600000000     0.0380615  
C        C      0.063100000000     0.631600000000     0.582500000000     0.0380615  
C        C      0.014900000000     0.618300000000     0.408300000000     0.0380615  
C        C      0.308400000000     0.509100000000     0.783500000000     0.0380615  
C        C      0.923300000000     0.642400000000     0.755400000000     0.0380615  
C        C      0.383000000000     0.365400000000     0.861000000000     0.0380615  
C        C      0.563600000000     0.363400000000     0.915900000000     0.0380615  
C        C      0.006000000000     0.194900000000     0.002700000000     0.0380615  
C        C      0.097700000000     0.147500000000     0.408900000000     0.0380615  
C        C      0.113900000000     0.033600000000     0.177400000000     0.0380615  
C        C      0.936900000000     0.131600000000     0.417500000000     0.0380615  
C        C      0.985100000000     0.118300000000     0.591700000000     0.0380615  
C        C      0.691600000000     0.009100000000     0.216500000000     0.0380615  
C        C      0.076700000000     0.142400000000     0.244600000000     0.0380615  
C        C      0.617000000000     0.865400000000     0.139000000000     0.0380615  
C        C      0.436400000000     0.863400000000     0.084100000000     0.0380615  
N        N      0.673000000000     0.420900000000     0.065400000000    -0.230169   
N        N      0.995000000000     0.749900000000     0.871800000000    -0.230169   
N        N      0.157700000000     0.512400000000     0.675700000000    -0.230169   
N        N      0.928800000000     0.565900000000     0.976400000000    -0.230169   
N        N      0.327000000000     0.920900000000     0.934600000000    -0.230169   
N        N      0.005000000000     0.249900000000     0.128200000000    -0.230169   
N        N      0.842300000000     0.012400000000     0.324300000000    -0.230169   
N        N      0.071200000000     0.065900000000     0.023600000000    -0.230169   
O        O      0.006700000000     0.493600000000     0.356600000000    -0.288718   
O        O      0.988200000000     0.726600000000     0.329100000000    -0.288718   
O        O      0.386700000000     0.627300000000     0.830400000000    -0.288718   
O        O      0.993300000000     0.993600000000     0.643400000000    -0.288718   
O        O      0.011800000000     0.226600000000     0.670900000000    -0.288718   
O        O      0.613300000000     0.127300000000     0.169600000000    -0.288718   


