data_FIRVEH_original

_audit_creation_method RASPA-1.0
_audit_creation_date 2022-1-28
_audit_author_name 'Felipe Lopes de Oliveira <felipe.lopes.oliveira@ibm.com>'

_cell_length_a    7.675
_cell_length_b    10.3639
_cell_length_c    10.3639
_cell_angle_alpha 82.1197
_cell_angle_beta  68.2674
_cell_angle_gamma 68.2674
_cell_volume      711.35

_symmetry_cell_setting          triclinic
_symmetry_space_group_name_Hall 'P 1'
_symmetry_space_group_name_H-M  'P 1'
_symmetry_Int_Tables_number     1

_symmetry_equiv_pos_as_xyz 'x,y,z'

loop_
_atom_site_label
_atom_site_type_symbol
_atom_site_fract_x
_atom_site_fract_y
_atom_site_fract_z
_atom_site_charge
Ca       Ca     0.125000000000     0.440700000000     0.059300000000     1.33715    
Ca       Ca     0.625000000000     0.559300000000     0.940700000000     1.33715    
Ca       Ca     0.815700000000     0.059300000000     0.559300000000     1.33715    
Ca       Ca     0.434300000000     0.940700000000     0.440700000000     1.33715    
C        C      0.226100000000     0.656800000000     0.827200000000     0.0662148  
C        C      0.052200000000     0.719400000000     0.237400000000     0.0662148  
C        C      0.710100000000     0.343200000000     0.172800000000     0.0662148  
C        C      0.009000000000     0.280600000000     0.762600000000     0.0662148  
C        C      0.946700000000     0.827200000000     0.343200000000     0.0662148  
C        C      0.710400000000     0.237400000000     0.280600000000     0.0662148  
C        C      0.117100000000     0.172800000000     0.656800000000     0.0662148  
C        C      0.228400000000     0.762600000000     0.719400000000     0.0662148  
C        C      0.539900000000     0.327200000000     0.156800000000     0.0662148  
C        C      0.241000000000     0.737400000000     0.219400000000     0.0662148  
C        C      0.023900000000     0.672800000000     0.843200000000     0.0662148  
C        C      0.197800000000     0.262600000000     0.780600000000     0.0662148  
C        C      0.132900000000     0.843200000000     0.327200000000     0.0662148  
C        C      0.021600000000     0.780600000000     0.737400000000     0.0662148  
C        C      0.303300000000     0.156800000000     0.672800000000     0.0662148  
C        C      0.539600000000     0.219400000000     0.262600000000     0.0662148  
O        O      0.340400000000     0.578200000000     0.887800000000    -0.400502   
O        O      0.001000000000     0.645000000000     0.184200000000    -0.400502   
O        O      0.806400000000     0.421800000000     0.112200000000    -0.400502   
O        O      0.830200000000     0.355000000000     0.815800000000    -0.400502   
O        O      0.771800000000     0.887800000000     0.421800000000    -0.400502   
O        O      0.814800000000     0.184200000000     0.355000000000    -0.400502   
O        O      0.081400000000     0.112200000000     0.578200000000    -0.400502   
O        O      0.354000000000     0.815800000000     0.645000000000    -0.400502   
O        O      0.443600000000     0.387800000000     0.078200000000    -0.400502   
O        O      0.419800000000     0.684200000000     0.145000000000    -0.400502   
O        O      0.909600000000     0.612200000000     0.921800000000    -0.400502   
O        O      0.249000000000     0.315800000000     0.855000000000    -0.400502   
O        O      0.168600000000     0.921800000000     0.387800000000    -0.400502   
O        O      0.896000000000     0.855000000000     0.684200000000    -0.400502   
O        O      0.478200000000     0.078200000000     0.612200000000    -0.400502   
O        O      0.435200000000     0.145000000000     0.315800000000    -0.400502   


