data_FUNCEX_original

_audit_creation_method RASPA-1.0
_audit_creation_date 2022-1-31
_audit_author_name 'Felipe Lopes de Oliveira <felipe.lopes.oliveira@ibm.com>'

_cell_length_a    11.6151
_cell_length_b    15.648
_cell_length_c    18.163
_cell_angle_alpha 90
_cell_angle_beta  93.202
_cell_angle_gamma 90
_cell_volume      3296.03

_symmetry_cell_setting          triclinic
_symmetry_space_group_name_Hall 'P 1'
_symmetry_space_group_name_H-M  'P 1'
_symmetry_Int_Tables_number     1

_symmetry_equiv_pos_as_xyz 'x,y,z'

loop_
_atom_site_label
_atom_site_type_symbol
_atom_site_fract_x
_atom_site_fract_y
_atom_site_fract_z
_atom_site_charge
Zn       Zn     0.992380000000     0.000000000000     0.918930000000     0.472845   
Zn       Zn     0.007620000000     0.000000000000     0.081070000000     0.472845   
H        H      0.742400000000     0.795400000000     0.888800000000     0.0622309  
H        H      0.758000000000     0.798000000000     0.110000000000     0.0622309  
H        H      0.648800000000     0.671700000000     0.109800000000     0.0622309  
H        H      0.621000000000     0.671800000000     0.893100000000     0.0622309  
H        H      0.257600000000     0.795400000000     0.111200000000     0.0622309  
H        H      0.242000000000     0.798000000000     0.890000000000     0.0622309  
H        H      0.351200000000     0.671700000000     0.890200000000     0.0622309  
H        H      0.379000000000     0.671800000000     0.106900000000     0.0622309  
H        H      0.257600000000     0.204600000000     0.111200000000     0.0622309  
H        H      0.242000000000     0.202000000000     0.890000000000     0.0622309  
H        H      0.351200000000     0.328300000000     0.890200000000     0.0622309  
H        H      0.379000000000     0.328200000000     0.106900000000     0.0622309  
H        H      0.742400000000     0.204600000000     0.888800000000     0.0622309  
H        H      0.758000000000     0.202000000000     0.110000000000     0.0622309  
H        H      0.648800000000     0.328300000000     0.109800000000     0.0622309  
H        H      0.621000000000     0.328200000000     0.893100000000     0.0622309  
H        H      0.159800000000     0.000000000000     0.802600000000     0.0622309  
H        H      0.827000000000     0.000000000000     0.789900000000     0.0622309  
H        H      0.167100000000     0.000000000000     0.678900000000     0.0622309  
H        H      0.823500000000     0.000000000000     0.663400000000     0.0622309  
H        H      0.840200000000     0.000000000000     0.197400000000     0.0622309  
H        H      0.173000000000     0.000000000000     0.210100000000     0.0622309  
H        H      0.832900000000     0.000000000000     0.321100000000     0.0622309  
H        H      0.176500000000     0.000000000000     0.336600000000     0.0622309  
C        C      0.764800000000     0.805900000000     0.000000000000     0.0239925  
C        C      0.848500000000     0.884400000000     0.001000000000     0.0239925  
C        C      0.562600000000     0.577700000000     0.999500000000     0.0239925  
C        C      0.626600000000     0.660700000000     0.999900000000     0.0239925  
C        C      0.724100000000     0.771500000000     0.933500000000     0.0239925  
C        C      0.734300000000     0.771900000000     0.065700000000     0.0239925  
C        C      0.666400000000     0.696700000000     0.065500000000     0.0239925  
C        C      0.651100000000     0.695900000000     0.936800000000     0.0239925  
C        C      0.235200000000     0.805900000000     0.000000000000     0.0239925  
C        C      0.151500000000     0.884400000000     0.999000000000     0.0239925  
C        C      0.437400000000     0.577700000000     0.000500000000     0.0239925  
C        C      0.373400000000     0.660700000000     0.000100000000     0.0239925  
C        C      0.275900000000     0.771500000000     0.066500000000     0.0239925  
C        C      0.265700000000     0.771900000000     0.934300000000     0.0239925  
C        C      0.333600000000     0.696700000000     0.934500000000     0.0239925  
C        C      0.348900000000     0.695900000000     0.063200000000     0.0239925  
C        C      0.235200000000     0.194100000000     0.000000000000     0.0239925  
C        C      0.151500000000     0.115600000000     0.999000000000     0.0239925  
C        C      0.437400000000     0.422300000000     0.000500000000     0.0239925  
C        C      0.373400000000     0.339300000000     0.000100000000     0.0239925  
C        C      0.275900000000     0.228500000000     0.066500000000     0.0239925  
C        C      0.265700000000     0.228100000000     0.934300000000     0.0239925  
C        C      0.333600000000     0.303300000000     0.934500000000     0.0239925  
C        C      0.348900000000     0.304100000000     0.063200000000     0.0239925  
C        C      0.764800000000     0.194100000000     0.000000000000     0.0239925  
C        C      0.848500000000     0.115600000000     0.001000000000     0.0239925  
C        C      0.562600000000     0.422300000000     0.999500000000     0.0239925  
C        C      0.626600000000     0.339300000000     0.999900000000     0.0239925  
C        C      0.724100000000     0.228500000000     0.933500000000     0.0239925  
C        C      0.734300000000     0.228100000000     0.065700000000     0.0239925  
C        C      0.666400000000     0.303300000000     0.065500000000     0.0239925  
C        C      0.651100000000     0.304100000000     0.936800000000     0.0239925  
C        C      0.090200000000     0.000000000000     0.774700000000     0.0239925  
C        C      0.896900000000     0.000000000000     0.767300000000     0.0239925  
C        C      0.095400000000     0.000000000000     0.699200000000     0.0239925  
C        C      0.997210000000     0.000000000000     0.652900000000     0.0239925  
C        C      0.894100000000     0.000000000000     0.690200000000     0.0239925  
C        C      0.998720000000     0.000000000000     0.569900000000     0.0239925  
C        C      0.909800000000     0.000000000000     0.225300000000     0.0239925  
C        C      0.103100000000     0.000000000000     0.232700000000     0.0239925  
C        C      0.904600000000     0.000000000000     0.300800000000     0.0239925  
C        C      0.002790000000     0.000000000000     0.347100000000     0.0239925  
C        C      0.105900000000     0.000000000000     0.309800000000     0.0239925  
C        C      0.001280000000     0.000000000000     0.430100000000     0.0239925  
C        C      0.615600000000     0.500000000000     0.002900000000     0.0239925  
C        C      0.384400000000     0.500000000000     0.997100000000     0.0239925  
Br       Br     0.780670000000     0.500000000000     0.999380000000    -0.222384   
Br       Br     0.219330000000     0.500000000000     0.000620000000    -0.222384   
N        N      0.994340000000     0.000000000000     0.810700000000    -0.109781   
N        N      0.099800000000     0.000000000000     0.538700000000    -0.109781   
N        N      0.896900000000     0.000000000000     0.532800000000    -0.109781   
N        N      0.005660000000     0.000000000000     0.189300000000    -0.109781   
N        N      0.900200000000     0.000000000000     0.461300000000    -0.109781   
N        N      0.103100000000     0.000000000000     0.467200000000    -0.109781   
O        O      0.870300000000     0.908900000000     0.939500000000    -0.304929   
O        O      0.883800000000     0.909100000000     0.062600000000    -0.304929   
O        O      0.129700000000     0.908900000000     0.060500000000    -0.304929   
O        O      0.116200000000     0.909100000000     0.937400000000    -0.304929   
O        O      0.129700000000     0.091100000000     0.060500000000    -0.304929   
O        O      0.116200000000     0.090900000000     0.937400000000    -0.304929   
O        O      0.870300000000     0.091100000000     0.939500000000    -0.304929   
O        O      0.883800000000     0.090900000000     0.062600000000    -0.304929   


