data_FUTKEL_original

_audit_creation_method RASPA-1.0
_audit_creation_date 2022-1-31
_audit_author_name 'Felipe Lopes de Oliveira <felipe.lopes.oliveira@ibm.com>'

_cell_length_a    15.2904
_cell_length_b    15.2904
_cell_length_c    17.6674
_cell_angle_alpha 115.64
_cell_angle_beta  115.64
_cell_angle_gamma 90.0001
_cell_volume      3266.81

_symmetry_cell_setting          triclinic
_symmetry_space_group_name_Hall 'P 1'
_symmetry_space_group_name_H-M  'P 1'
_symmetry_Int_Tables_number     1

_symmetry_equiv_pos_as_xyz 'x,y,z'

loop_
_atom_site_label
_atom_site_type_symbol
_atom_site_fract_x
_atom_site_fract_y
_atom_site_fract_z
_atom_site_charge
Zn       Zn     0.944120000000     0.944130000000     0.888260000000     0.552799   
Zn       Zn     0.555770000000     0.555790000000     0.111540000000     0.552799   
Zn       Zn     0.055820000000     0.055800000000     0.111590000000     0.552799   
Zn       Zn     0.444290000000     0.444290000000     0.888600000000     0.552799   
H        H      0.838270000000     0.708840000000     0.819550000000     0.043956   
H        H      0.745990000000     0.548670000000     0.681780000000     0.043956   
H        H      0.935600000000     0.748970000000     0.743550000000     0.043956   
H        H      0.848850000000     0.658340000000     0.567370000000     0.043956   
H        H      0.981410000000     0.110420000000     0.819300000000     0.043956   
H        H      0.935950000000     0.133020000000     0.681650000000     0.043956   
H        H      0.807940000000     0.994570000000     0.743560000000     0.043956   
H        H      0.718530000000     0.909050000000     0.567390000000     0.043956   
H        H      0.697950000000     0.967300000000     0.874200000000     0.043956   
H        H      0.517190000000     0.902430000000     0.773870000000     0.043956   
H        H      0.176030000000     0.906670000000     0.873960000000     0.043956   
H        H      0.256250000000     0.871000000000     0.773440000000     0.043956   
H        H      0.519020000000     0.790280000000     0.179860000000     0.043956   
H        H      0.564790000000     0.949990000000     0.318210000000     0.043956   
H        H      0.661100000000     0.389820000000     0.179990000000     0.043956   
H        H      0.753880000000     0.368680000000     0.318420000000     0.043956   
H        H      0.323630000000     0.532780000000     0.126540000000     0.043956   
H        H      0.242850000000     0.597160000000     0.226610000000     0.043956   
H        H      0.497210000000     0.673580000000     0.255310000000     0.043956   
H        H      0.582720000000     0.763190000000     0.431750000000     0.043956   
H        H      0.802800000000     0.593480000000     0.126250000000     0.043956   
H        H      0.983630000000     0.629220000000     0.226460000000     0.043956   
H        H      0.758130000000     0.581790000000     0.255310000000     0.043956   
H        H      0.849050000000     0.668600000000     0.431750000000     0.043956   
H        H      0.092680000000     0.301910000000     0.125370000000     0.043956   
H        H      0.128280000000     0.482630000000     0.226030000000     0.043956   
H        H      0.085800000000     0.259460000000     0.255390000000     0.043956   
H        H      0.171150000000     0.349980000000     0.431450000000     0.043956   
H        H      0.032700000000     0.823660000000     0.125680000000     0.043956   
H        H      0.097680000000     0.743440000000     0.226200000000     0.043956   
H        H      0.169640000000     0.995960000000     0.255390000000     0.043956   
H        H      0.260310000000     0.081490000000     0.431450000000     0.043956   
H        H      0.291140000000     0.018870000000     0.180710000000     0.043956   
H        H      0.451110000000     0.064040000000     0.318630000000     0.043956   
H        H      0.889830000000     0.162130000000     0.180860000000     0.043956   
H        H      0.867990000000     0.255070000000     0.318860000000     0.043956   
H        H      0.467340000000     0.197360000000     0.874030000000     0.043956   
H        H      0.402780000000     0.016540000000     0.773780000000     0.043956   
H        H      0.329230000000     0.241080000000     0.744840000000     0.043956   
H        H      0.238500000000     0.150570000000     0.568760000000     0.043956   
H        H      0.406470000000     0.676460000000     0.873800000000     0.043956   
H        H      0.370570000000     0.756810000000     0.773360000000     0.043956   
H        H      0.415580000000     0.503760000000     0.744850000000     0.043956   
H        H      0.330240000000     0.418210000000     0.568780000000     0.043956   
H        H      0.610350000000     0.481030000000     0.820220000000     0.043956   
H        H      0.632190000000     0.435050000000     0.682110000000     0.043956   
H        H      0.209840000000     0.339540000000     0.820440000000     0.043956   
H        H      0.049980000000     0.247310000000     0.682220000000     0.043956   
H        H      0.783380000000     0.992610000000     0.046270000000     0.043956   
H        H      0.653780000000     0.049440000000     0.088200000000     0.043956   
H        H      0.262820000000     0.053510000000     0.046040000000     0.043956   
H        H      0.434380000000     0.038670000000     0.088060000000     0.043956   
H        H      0.945930000000     0.216070000000     0.953100000000     0.043956   
H        H      0.960460000000     0.345240000000     0.910540000000     0.043956   
H        H      0.007450000000     0.737300000000     0.953850000000     0.043956   
H        H      0.950730000000     0.565950000000     0.912490000000     0.043956   
H        H      0.236970000000     0.507580000000     0.954170000000     0.043956   
H        H      0.065510000000     0.451120000000     0.912740000000     0.043956   
H        H      0.716720000000     0.446120000000     0.953420000000     0.043956   
H        H      0.845930000000     0.460310000000     0.910780000000     0.043956   
H        H      0.492730000000     0.283360000000     0.046550000000     0.043956   
H        H      0.549330000000     0.153570000000     0.088290000000     0.043956   
H        H      0.553700000000     0.763130000000     0.046350000000     0.043956   
H        H      0.538910000000     0.934690000000     0.088210000000     0.043956   
C        C      0.767440000000     0.700450000000     0.901460000000     0.00538338 
C        C      0.783920000000     0.667000000000     0.821760000000     0.00538338 
C        C      0.732900000000     0.573190000000     0.742590000000     0.00538338 
C        C      0.888080000000     0.783490000000     0.704250000000     0.00538338 
C        C      0.839030000000     0.732310000000     0.604200000000     0.00538338 
C        C      0.134060000000     0.201000000000     0.901420000000     0.00538338 
C        C      0.037940000000     0.154640000000     0.821630000000     0.00538338 
C        C      0.009800000000     0.169370000000     0.742510000000     0.00538338 
C        C      0.816150000000     0.920750000000     0.704260000000     0.00538338 
C        C      0.765160000000     0.871900000000     0.604200000000     0.00538338 
C        C      0.689740000000     0.122850000000     0.930660000000     0.00538338 
C        C      0.650440000000     0.019520000000     0.873750000000     0.00538338 
C        C      0.547300000000     0.982190000000     0.817090000000     0.00538338 
C        C      0.240760000000     0.807650000000     0.930490000000     0.00538338 
C        C      0.223050000000     0.853970000000     0.873490000000     0.00538338 
C        C      0.269420000000     0.834540000000     0.816720000000     0.00538338 
C        C      0.366260000000     0.799190000000     0.098400000000     0.00538338 
C        C      0.462530000000     0.832240000000     0.177950000000     0.00538338 
C        C      0.490880000000     0.925810000000     0.257460000000     0.00538338 
C        C      0.732340000000     0.299410000000     0.098480000000     0.00538338 
C        C      0.715700000000     0.345990000000     0.178070000000     0.00538338 
C        C      0.766970000000     0.332050000000     0.257650000000     0.00538338 
C        C      0.259170000000     0.377130000000     0.069830000000     0.00538338 
C        C      0.276580000000     0.480400000000     0.126830000000     0.00538338 
C        C      0.229840000000     0.517450000000     0.183280000000     0.00538338 
C        C      0.574440000000     0.673450000000     0.294890000000     0.00538338 
C        C      0.623220000000     0.724440000000     0.394940000000     0.00538338 
C        C      0.810620000000     0.692650000000     0.069780000000     0.00538338 
C        C      0.850160000000     0.646260000000     0.126680000000     0.00538338 
C        C      0.953350000000     0.665690000000     0.183210000000     0.00538338 
C        C      0.720480000000     0.621490000000     0.294890000000     0.00538338 
C        C      0.771740000000     0.670540000000     0.394940000000     0.00538338 
C        C      0.192300000000     0.310260000000     0.069500000000     0.00538338 
C        C      0.145620000000     0.349480000000     0.126170000000     0.00538338 
C        C      0.164970000000     0.452600000000     0.182960000000     0.00538338 
C        C      0.124090000000     0.221350000000     0.294990000000     0.00538338 
C        C      0.173360000000     0.272720000000     0.395040000000     0.00538338 
C        C      0.877190000000     0.759240000000     0.069550000000     0.00538338 
C        C      0.980530000000     0.776780000000     0.126340000000     0.00538338 
C        C      0.017920000000     0.730350000000     0.183050000000     0.00538338 
C        C      0.170950000000     0.073670000000     0.294990000000     0.00538338 
C        C      0.221700000000     0.122330000000     0.395040000000     0.00538338 
C        C      0.299590000000     0.866100000000     0.098640000000     0.00538338 
C        C      0.332960000000     0.962230000000     0.178430000000     0.00538338 
C        C      0.426660000000     0.990240000000     0.257700000000     0.00538338 
C        C      0.799250000000     0.232740000000     0.098720000000     0.00538338 
C        C      0.845760000000     0.216500000000     0.178570000000     0.00538338 
C        C      0.831430000000     0.267860000000     0.257890000000     0.00538338 
C        C      0.622950000000     0.189460000000     0.930470000000     0.00538338 
C        C      0.519660000000     0.149960000000     0.873580000000     0.00538338 
C        C      0.482500000000     0.046790000000     0.817020000000     0.00538338 
C        C      0.328460000000     0.279000000000     0.705230000000     0.00538338 
C        C      0.277690000000     0.227630000000     0.605180000000     0.00538338 
C        C      0.307360000000     0.740850000000     0.930300000000     0.00538338 
C        C      0.353680000000     0.723380000000     0.873330000000     0.00538338 
C        C      0.334160000000     0.769870000000     0.816670000000     0.00538338 
C        C      0.376740000000     0.426230000000     0.705240000000     0.00538338 
C        C      0.327460000000     0.377550000000     0.605180000000     0.00538338 
C        C      0.700770000000     0.633780000000     0.901700000000     0.00538338 
C        C      0.654320000000     0.537470000000     0.822180000000     0.00538338 
C        C      0.668620000000     0.509000000000     0.742780000000     0.00538338 
C        C      0.200960000000     0.267990000000     0.901740000000     0.00538338 
C        C      0.167880000000     0.284920000000     0.822300000000     0.00538338 
C        C      0.074220000000     0.233940000000     0.742840000000     0.00538338 
C        C      0.776410000000     0.776410000000     0.552810000000     0.00538338 
C        C      0.723170000000     0.723180000000     0.446330000000     0.00538338 
C        C      0.223350000000     0.223350000000     0.446700000000     0.00538338 
C        C      0.276750000000     0.276760000000     0.553520000000     0.00538338 
C        C      0.826210000000     0.799000000000     0.997710000000     0.00538338 
C        C      0.744930000000     0.842540000000     0.021350000000     0.00538338 
C        C      0.896600000000     0.877550000000     0.000470000000     0.00538338 
C        C      0.734410000000     0.940720000000     0.045000000000     0.00538338 
C        C      0.660160000000     0.973370000000     0.068760000000     0.00538338 
C        C      0.171490000000     0.198680000000     0.997650000000     0.00538338 
C        C      0.276410000000     0.178790000000     0.021310000000     0.00538338 
C        C      0.103860000000     0.122890000000     0.000420000000     0.00538338 
C        C      0.310550000000     0.104200000000     0.044870000000     0.00538338 
C        C      0.408570000000     0.095340000000     0.068680000000     0.00538338 
C        C      0.801360000000     0.173810000000     0.002400000000     0.00538338 
C        C      0.821160000000     0.254930000000     0.978540000000     0.00538338 
C        C      0.877120000000     0.103420000000     0.999680000000     0.00538338 
C        C      0.895420000000     0.265140000000     0.954480000000     0.00538338 
C        C      0.904090000000     0.339140000000     0.930370000000     0.00538338 
C        C      0.201070000000     0.828610000000     0.002390000000     0.00538338 
C        C      0.157500000000     0.723730000000     0.978800000000     0.00538338 
C        C      0.122580000000     0.896270000000     0.999670000000     0.00538338 
C        C      0.059340000000     0.689610000000     0.955220000000     0.00538338 
C        C      0.026740000000     0.591700000000     0.931740000000     0.00538338 
C        C      0.328320000000     0.700810000000     0.001930000000     0.00538338 
C        C      0.223490000000     0.657530000000     0.978670000000     0.00538338 
C        C      0.395630000000     0.621990000000     0.998590000000     0.00538338 
C        C      0.189290000000     0.559490000000     0.955330000000     0.00538338 
C        C      0.091350000000     0.527060000000     0.931860000000     0.00538338 
C        C      0.673640000000     0.301150000000     0.001940000000     0.00538338 
C        C      0.755050000000     0.321000000000     0.978420000000     0.00538338 
C        C      0.602970000000     0.376620000000     0.998590000000     0.00538338 
C        C      0.765570000000     0.395370000000     0.954590000000     0.00538338 
C        C      0.839620000000     0.403900000000     0.930490000000     0.00538338 
C        C      0.299290000000     0.326530000000     0.998250000000     0.00538338 
C        C      0.342620000000     0.245000000000     0.021560000000     0.00538338 
C        C      0.378100000000     0.397180000000     0.001590000000     0.00538338 
C        C      0.440770000000     0.234380000000     0.045200000000     0.00538338 
C        C      0.473280000000     0.160020000000     0.068820000000     0.00538338 
C        C      0.698930000000     0.671710000000     0.998200000000     0.00538338 
C        C      0.678930000000     0.776550000000     0.021530000000     0.00538338 
C        C      0.623460000000     0.604390000000     0.001540000000     0.00538338 
C        C      0.604370000000     0.810790000000     0.045100000000     0.00538338 
C        C      0.595520000000     0.908790000000     0.068780000000     0.00538338 
N        N      0.876100000000     0.876110000000     0.752230000000    -0.162245   
N        N      0.623560000000     0.623570000000     0.247080000000    -0.162245   
N        N      0.123610000000     0.123590000000     0.247160000000    -0.162245   
N        N      0.376510000000     0.376520000000     0.753050000000    -0.162245   
O        O      0.885130000000     0.873560000000     0.923050000000    -0.3098     
O        O      0.037890000000     0.049480000000     0.923020000000    -0.3098     
O        O      0.869350000000     0.037450000000     0.920070000000    -0.3098     
O        O      0.050710000000     0.882620000000     0.920080000000    -0.3098     
O        O      0.461610000000     0.625670000000     0.075770000000    -0.3098     
O        O      0.614170000000     0.450130000000     0.075750000000    -0.3098     
O        O      0.449960000000     0.462980000000     0.081410000000    -0.3098     
O        O      0.631420000000     0.618440000000     0.081370000000    -0.3098     
O        O      0.117770000000     0.130600000000     0.080160000000    -0.3098     
O        O      0.962440000000     0.949570000000     0.080200000000    -0.3098     
O        O      0.126410000000     0.962020000000     0.076980000000    -0.3098     
O        O      0.950610000000     0.114960000000     0.076970000000    -0.3098     
O        O      0.537190000000     0.368670000000     0.918760000000    -0.3098     
O        O      0.381570000000     0.550090000000     0.918770000000    -0.3098     
O        O      0.549930000000     0.538480000000     0.924370000000    -0.3098     
O        O      0.374460000000     0.385900000000     0.924400000000    -0.3098     


