data_GACPUX_original

_audit_creation_method RASPA-1.0
_audit_creation_date 2022-1-29
_audit_author_name 'Felipe Lopes de Oliveira <felipe.lopes.oliveira@ibm.com>'

_cell_length_a    10.1365
_cell_length_b    11.4134
_cell_length_c    29.2794
_cell_angle_alpha 90
_cell_angle_beta  90
_cell_angle_gamma 90
_cell_volume      3387.39

_symmetry_cell_setting          triclinic
_symmetry_space_group_name_Hall 'P 1'
_symmetry_space_group_name_H-M  'P 1'
_symmetry_Int_Tables_number     1

_symmetry_equiv_pos_as_xyz 'x,y,z'

loop_
_atom_site_label
_atom_site_type_symbol
_atom_site_fract_x
_atom_site_fract_y
_atom_site_fract_z
_atom_site_charge
Zn       Zn     0.341390000000     0.315380000000     0.006980000000     0.470893   
Zn       Zn     0.034690000000     0.430190000000     0.006230000000     0.470893   
Zn       Zn     0.158610000000     0.684620000000     0.506980000000     0.470893   
Zn       Zn     0.465310000000     0.569810000000     0.506230000000     0.470893   
Zn       Zn     0.658610000000     0.815380000000     0.493020000000     0.470893   
Zn       Zn     0.965310000000     0.930190000000     0.493770000000     0.470893   
Zn       Zn     0.841390000000     0.184620000000     0.993020000000     0.470893   
Zn       Zn     0.534690000000     0.069810000000     0.993770000000     0.470893   
H        H      0.249200000000     0.018700000000     0.977900000000     0.0524131  
H        H      0.133900000000     0.871700000000     0.020000000000     0.0524131  
H        H      0.090200000000     0.773500000000     0.088800000000     0.0524131  
H        H      0.164500000000     0.852500000000     0.157800000000     0.0524131  
H        H      0.274100000000     0.032600000000     0.158800000000     0.0524131  
H        H      0.314400000000     0.131800000000     0.089800000000     0.0524131  
H        H      0.035300000000     0.487600000000     0.866300000000     0.0524131  
H        H      0.050000000000     0.517200000000     0.787700000000     0.0524131  
H        H      0.446900000000     0.475200000000     0.793700000000     0.0524131  
H        H      0.432000000000     0.440900000000     0.872300000000     0.0524131  
H        H      0.121200000000     0.646600000000     0.728400000000     0.0524131  
H        H      0.135100000000     0.676300000000     0.649900000000     0.0524131  
H        H      0.417000000000     0.425100000000     0.641800000000     0.0524131  
H        H      0.397600000000     0.391900000000     0.720300000000     0.0524131  
H        H      0.250800000000     0.981300000000     0.477900000000     0.0524131  
H        H      0.366100000000     0.128300000000     0.520000000000     0.0524131  
H        H      0.409800000000     0.226500000000     0.588800000000     0.0524131  
H        H      0.335500000000     0.147500000000     0.657800000000     0.0524131  
H        H      0.225900000000     0.967400000000     0.658800000000     0.0524131  
H        H      0.185600000000     0.868200000000     0.589800000000     0.0524131  
H        H      0.464700000000     0.512400000000     0.366300000000     0.0524131  
H        H      0.450000000000     0.482800000000     0.287700000000     0.0524131  
H        H      0.053100000000     0.524800000000     0.293700000000     0.0524131  
H        H      0.068000000000     0.559100000000     0.372300000000     0.0524131  
H        H      0.378800000000     0.353400000000     0.228400000000     0.0524131  
H        H      0.364900000000     0.323700000000     0.149900000000     0.0524131  
H        H      0.083000000000     0.574900000000     0.141800000000     0.0524131  
H        H      0.102400000000     0.608100000000     0.220300000000     0.0524131  
H        H      0.750800000000     0.518700000000     0.522100000000     0.0524131  
H        H      0.866100000000     0.371700000000     0.480000000000     0.0524131  
H        H      0.909800000000     0.273500000000     0.411200000000     0.0524131  
H        H      0.835500000000     0.352500000000     0.342200000000     0.0524131  
H        H      0.725900000000     0.532600000000     0.341200000000     0.0524131  
H        H      0.685600000000     0.631800000000     0.410200000000     0.0524131  
H        H      0.964700000000     0.987600000000     0.633700000000     0.0524131  
H        H      0.950000000000     0.017200000000     0.712300000000     0.0524131  
H        H      0.553100000000     0.975200000000     0.706300000000     0.0524131  
H        H      0.568000000000     0.940900000000     0.627700000000     0.0524131  
H        H      0.878800000000     0.146600000000     0.771600000000     0.0524131  
H        H      0.864900000000     0.176300000000     0.850100000000     0.0524131  
H        H      0.583000000000     0.925100000000     0.858200000000     0.0524131  
H        H      0.602400000000     0.891900000000     0.779700000000     0.0524131  
H        H      0.749200000000     0.481300000000     0.022100000000     0.0524131  
H        H      0.633900000000     0.628300000000     0.980000000000     0.0524131  
H        H      0.590200000000     0.726500000000     0.911200000000     0.0524131  
H        H      0.664500000000     0.647500000000     0.842200000000     0.0524131  
H        H      0.774100000000     0.467400000000     0.841200000000     0.0524131  
H        H      0.814400000000     0.368200000000     0.910200000000     0.0524131  
H        H      0.535300000000     0.012400000000     0.133700000000     0.0524131  
H        H      0.550000000000     0.982800000000     0.212300000000     0.0524131  
H        H      0.946900000000     0.024800000000     0.206300000000     0.0524131  
H        H      0.932000000000     0.059100000000     0.127700000000     0.0524131  
H        H      0.621200000000     0.853400000000     0.271600000000     0.0524131  
H        H      0.635100000000     0.823700000000     0.350100000000     0.0524131  
H        H      0.917000000000     0.074900000000     0.358200000000     0.0524131  
H        H      0.897600000000     0.108100000000     0.279700000000     0.0524131  
C        C      0.125500000000     0.155700000000     0.997600000000     0.0166714  
C        C      0.247200000000     0.077200000000     0.003350000000     0.0166714  
C        C      0.228500000000     0.012500000000     0.048600000000     0.0166714  
C        C      0.161900000000     0.904700000000     0.048130000000     0.0166714  
C        C      0.136700000000     0.845700000000     0.089050000000     0.0166714  
C        C      0.179900000000     0.893300000000     0.130060000000     0.0166714  
C        C      0.245500000000     0.999800000000     0.130710000000     0.0166714  
C        C      0.269400000000     0.058800000000     0.089440000000     0.0166714  
C        C      0.223300000000     0.436800000000     0.926840000000     0.0166714  
C        C      0.232800000000     0.461000000000     0.876850000000     0.0166714  
C        C      0.118600000000     0.484200000000     0.851550000000     0.0166714  
C        C      0.127700000000     0.502200000000     0.804880000000     0.0166714  
C        C      0.249100000000     0.498700000000     0.782810000000     0.0166714  
C        C      0.363300000000     0.476700000000     0.808390000000     0.0166714  
C        C      0.354500000000     0.457000000000     0.855190000000     0.0166714  
C        C      0.257100000000     0.516800000000     0.732480000000     0.0166714  
C        C      0.180900000000     0.600800000000     0.710840000000     0.0166714  
C        C      0.189900000000     0.619600000000     0.664180000000     0.0166714  
C        C      0.279300000000     0.555300000000     0.638360000000     0.0166714  
C        C      0.356600000000     0.470000000000     0.659340000000     0.0166714  
C        C      0.345200000000     0.450500000000     0.706130000000     0.0166714  
C        C      0.290900000000     0.577000000000     0.588100000000     0.0166714  
C        C      0.374500000000     0.844300000000     0.497600000000     0.0166714  
C        C      0.252800000000     0.922800000000     0.503350000000     0.0166714  
C        C      0.271500000000     0.987500000000     0.548600000000     0.0166714  
C        C      0.338100000000     0.095300000000     0.548130000000     0.0166714  
C        C      0.363300000000     0.154300000000     0.589050000000     0.0166714  
C        C      0.320100000000     0.106700000000     0.630060000000     0.0166714  
C        C      0.254500000000     0.000200000000     0.630710000000     0.0166714  
C        C      0.230600000000     0.941200000000     0.589440000000     0.0166714  
C        C      0.276700000000     0.563200000000     0.426840000000     0.0166714  
C        C      0.267200000000     0.539000000000     0.376850000000     0.0166714  
C        C      0.381400000000     0.515800000000     0.351550000000     0.0166714  
C        C      0.372300000000     0.497800000000     0.304880000000     0.0166714  
C        C      0.250900000000     0.501300000000     0.282810000000     0.0166714  
C        C      0.136700000000     0.523300000000     0.308390000000     0.0166714  
C        C      0.145500000000     0.543000000000     0.355190000000     0.0166714  
C        C      0.242900000000     0.483200000000     0.232480000000     0.0166714  
C        C      0.319100000000     0.399200000000     0.210840000000     0.0166714  
C        C      0.310100000000     0.380400000000     0.164180000000     0.0166714  
C        C      0.220700000000     0.444700000000     0.138360000000     0.0166714  
C        C      0.143400000000     0.530000000000     0.159340000000     0.0166714  
C        C      0.154800000000     0.549500000000     0.206130000000     0.0166714  
C        C      0.209100000000     0.423000000000     0.088100000000     0.0166714  
C        C      0.874500000000     0.655700000000     0.502400000000     0.0166714  
C        C      0.752800000000     0.577200000000     0.496650000000     0.0166714  
C        C      0.771500000000     0.512500000000     0.451400000000     0.0166714  
C        C      0.838100000000     0.404700000000     0.451870000000     0.0166714  
C        C      0.863300000000     0.345700000000     0.410950000000     0.0166714  
C        C      0.820100000000     0.393300000000     0.369940000000     0.0166714  
C        C      0.754500000000     0.499800000000     0.369290000000     0.0166714  
C        C      0.730600000000     0.558800000000     0.410560000000     0.0166714  
C        C      0.776700000000     0.936800000000     0.573160000000     0.0166714  
C        C      0.767200000000     0.961000000000     0.623150000000     0.0166714  
C        C      0.881400000000     0.984200000000     0.648450000000     0.0166714  
C        C      0.872300000000     0.002200000000     0.695120000000     0.0166714  
C        C      0.750900000000     0.998700000000     0.717190000000     0.0166714  
C        C      0.636700000000     0.976700000000     0.691610000000     0.0166714  
C        C      0.645500000000     0.957000000000     0.644810000000     0.0166714  
C        C      0.742900000000     0.016800000000     0.767520000000     0.0166714  
C        C      0.819100000000     0.100800000000     0.789160000000     0.0166714  
C        C      0.810100000000     0.119600000000     0.835820000000     0.0166714  
C        C      0.720700000000     0.055300000000     0.861640000000     0.0166714  
C        C      0.643400000000     0.970000000000     0.840660000000     0.0166714  
C        C      0.654800000000     0.950500000000     0.793870000000     0.0166714  
C        C      0.709100000000     0.077000000000     0.911900000000     0.0166714  
C        C      0.625500000000     0.344300000000     0.002400000000     0.0166714  
C        C      0.747200000000     0.422800000000     0.996650000000     0.0166714  
C        C      0.728500000000     0.487500000000     0.951400000000     0.0166714  
C        C      0.661900000000     0.595300000000     0.951870000000     0.0166714  
C        C      0.636700000000     0.654300000000     0.910950000000     0.0166714  
C        C      0.679900000000     0.606700000000     0.869940000000     0.0166714  
C        C      0.745500000000     0.500200000000     0.869290000000     0.0166714  
C        C      0.769400000000     0.441200000000     0.910560000000     0.0166714  
C        C      0.723300000000     0.063200000000     0.073160000000     0.0166714  
C        C      0.732800000000     0.039000000000     0.123150000000     0.0166714  
C        C      0.618600000000     0.015800000000     0.148450000000     0.0166714  
C        C      0.627700000000     0.997800000000     0.195120000000     0.0166714  
C        C      0.749100000000     0.001300000000     0.217190000000     0.0166714  
C        C      0.863300000000     0.023300000000     0.191610000000     0.0166714  
C        C      0.854500000000     0.043000000000     0.144810000000     0.0166714  
C        C      0.757100000000     0.983200000000     0.267520000000     0.0166714  
C        C      0.680900000000     0.899200000000     0.289160000000     0.0166714  
C        C      0.689900000000     0.880400000000     0.335820000000     0.0166714  
C        C      0.779300000000     0.944700000000     0.361640000000     0.0166714  
C        C      0.856600000000     0.030000000000     0.340660000000     0.0166714  
C        C      0.845200000000     0.049500000000     0.293870000000     0.0166714  
C        C      0.790900000000     0.923000000000     0.411900000000     0.0166714  
O        O      0.139200000000     0.264600000000     0.003910000000    -0.291763   
O        O      0.019100000000     0.105700000000     0.987640000000    -0.291763   
O        O      0.364100000000     0.145000000000     0.001870000000    -0.291763   
O        O      0.320100000000     0.391300000000     0.945840000000    -0.291763   
O        O      0.117300000000     0.468700000000     0.946620000000    -0.291763   
O        O      0.193900000000     0.629100000000     0.569780000000    -0.291763   
O        O      0.393700000000     0.542500000000     0.568100000000    -0.291763   
O        O      0.360800000000     0.735400000000     0.503910000000    -0.291763   
O        O      0.480900000000     0.894300000000     0.487640000000    -0.291763   
O        O      0.135900000000     0.855000000000     0.501870000000    -0.291763   
O        O      0.179900000000     0.608700000000     0.445840000000    -0.291763   
O        O      0.382700000000     0.531300000000     0.446620000000    -0.291763   
O        O      0.306100000000     0.370900000000     0.069780000000    -0.291763   
O        O      0.106300000000     0.457500000000     0.068100000000    -0.291763   
O        O      0.860800000000     0.764600000000     0.496090000000    -0.291763   
O        O      0.980900000000     0.605700000000     0.512360000000    -0.291763   
O        O      0.635900000000     0.645000000000     0.498130000000    -0.291763   
O        O      0.679900000000     0.891300000000     0.554160000000    -0.291763   
O        O      0.882700000000     0.968700000000     0.553380000000    -0.291763   
O        O      0.806100000000     0.129100000000     0.930220000000    -0.291763   
O        O      0.606300000000     0.042500000000     0.931900000000    -0.291763   
O        O      0.639200000000     0.235400000000     0.996090000000    -0.291763   
O        O      0.519100000000     0.394300000000     0.012360000000    -0.291763   
O        O      0.864100000000     0.355000000000     0.998130000000    -0.291763   
O        O      0.820100000000     0.108700000000     0.054160000000    -0.291763   
O        O      0.617300000000     0.031300000000     0.053380000000    -0.291763   
O        O      0.693900000000     0.870900000000     0.430220000000    -0.291763   
O        O      0.893700000000     0.957500000000     0.431900000000    -0.291763   


