data_GACQAE_original

_audit_creation_method RASPA-1.0
_audit_creation_date 2022-1-30
_audit_author_name 'Felipe Lopes de Oliveira <felipe.lopes.oliveira@ibm.com>'

_cell_length_a    10.2398
_cell_length_b    15.4892
_cell_length_c    23.7128
_cell_angle_alpha 90
_cell_angle_beta  90
_cell_angle_gamma 90
_cell_volume      3761

_symmetry_cell_setting          triclinic
_symmetry_space_group_name_Hall 'P 1'
_symmetry_space_group_name_H-M  'P 1'
_symmetry_Int_Tables_number     1

_symmetry_equiv_pos_as_xyz 'x,y,z'

loop_
_atom_site_label
_atom_site_type_symbol
_atom_site_fract_x
_atom_site_fract_y
_atom_site_fract_z
_atom_site_charge
Zn       Zn     0.614420000000     0.308860000000     0.012100000000     0.474843   
Zn       Zn     0.431270000000     0.120320000000     0.992150000000     0.474843   
Zn       Zn     0.885580000000     0.691140000000     0.512100000000     0.474843   
Zn       Zn     0.068730000000     0.879680000000     0.492150000000     0.474843   
Zn       Zn     0.385580000000     0.808860000000     0.487900000000     0.474843   
Zn       Zn     0.568730000000     0.620320000000     0.507850000000     0.474843   
Zn       Zn     0.114420000000     0.191140000000     0.987900000000     0.474843   
Zn       Zn     0.931270000000     0.379680000000     0.007850000000     0.474843   
H        H      0.050600000000     0.102400000000     0.826700000000     0.0571364  
H        H      0.023100000000     0.051700000000     0.735900000000     0.0571364  
H        H      0.433900000000     0.043800000000     0.820600000000     0.0571364  
H        H      0.116400000000     0.993600000000     0.647900000000     0.0571364  
H        H      0.498100000000     0.933900000000     0.641500000000     0.0571364  
H        H      0.528200000000     0.985900000000     0.730200000000     0.0571364  
H        H      0.705700000000     0.087800000000     0.972200000000     0.0571364  
H        H      0.569900000000     0.255500000000     0.888200000000     0.0571364  
H        H      0.555000000000     0.257500000000     0.789900000000     0.0571364  
H        H      0.678900000000     0.155400000000     0.738300000000     0.0571364  
H        H      0.782600000000     0.047600000000     0.781300000000     0.0571364  
H        H      0.798000000000     0.047200000000     0.881000000000     0.0571364  
H        H      0.449400000000     0.897600000000     0.326700000000     0.0571364  
H        H      0.476900000000     0.948300000000     0.235900000000     0.0571364  
H        H      0.066100000000     0.956200000000     0.320600000000     0.0571364  
H        H      0.383600000000     0.006400000000     0.147900000000     0.0571364  
H        H      0.001900000000     0.066100000000     0.141500000000     0.0571364  
H        H      0.971800000000     0.014100000000     0.230200000000     0.0571364  
H        H      0.794300000000     0.912200000000     0.472200000000     0.0571364  
H        H      0.930100000000     0.744500000000     0.388200000000     0.0571364  
H        H      0.945000000000     0.742500000000     0.289900000000     0.0571364  
H        H      0.821100000000     0.844600000000     0.238300000000     0.0571364  
H        H      0.717400000000     0.952400000000     0.281300000000     0.0571364  
H        H      0.702000000000     0.952800000000     0.381000000000     0.0571364  
H        H      0.949400000000     0.602400000000     0.673300000000     0.0571364  
H        H      0.976900000000     0.551700000000     0.764100000000     0.0571364  
H        H      0.566100000000     0.543800000000     0.679400000000     0.0571364  
H        H      0.883600000000     0.493600000000     0.852100000000     0.0571364  
H        H      0.501900000000     0.433900000000     0.858500000000     0.0571364  
H        H      0.471800000000     0.485900000000     0.769800000000     0.0571364  
H        H      0.294300000000     0.587800000000     0.527800000000     0.0571364  
H        H      0.430100000000     0.755500000000     0.611800000000     0.0571364  
H        H      0.445000000000     0.757500000000     0.710100000000     0.0571364  
H        H      0.321100000000     0.655400000000     0.761700000000     0.0571364  
H        H      0.217400000000     0.547600000000     0.718700000000     0.0571364  
H        H      0.202000000000     0.547200000000     0.619000000000     0.0571364  
H        H      0.550600000000     0.397600000000     0.173300000000     0.0571364  
H        H      0.523100000000     0.448300000000     0.264100000000     0.0571364  
H        H      0.933900000000     0.456200000000     0.179400000000     0.0571364  
H        H      0.616400000000     0.506400000000     0.352100000000     0.0571364  
H        H      0.998100000000     0.566100000000     0.358500000000     0.0571364  
H        H      0.028200000000     0.514100000000     0.269800000000     0.0571364  
H        H      0.205700000000     0.412200000000     0.027800000000     0.0571364  
H        H      0.069900000000     0.244500000000     0.111800000000     0.0571364  
H        H      0.055000000000     0.242500000000     0.210100000000     0.0571364  
H        H      0.178900000000     0.344600000000     0.261700000000     0.0571364  
H        H      0.282600000000     0.452400000000     0.218700000000     0.0571364  
H        H      0.298000000000     0.452800000000     0.119000000000     0.0571364  
C        C      0.258900000000     0.104800000000     0.893130000000     0.0221162  
C        C      0.245400000000     0.074900000000     0.832500000000     0.0221162  
C        C      0.123000000000     0.079400000000     0.806700000000     0.0221162  
C        C      0.107500000000     0.050400000000     0.752500000000     0.0221162  
C        C      0.211200000000     0.019400000000     0.721400000000     0.0221162  
C        C      0.338300000000     0.016500000000     0.746500000000     0.0221162  
C        C      0.350700000000     0.045200000000     0.802900000000     0.0221162  
C        C      0.199300000000     0.989700000000     0.665800000000     0.0221162  
C        C      0.301000000000     0.955300000000     0.636020000000     0.0221162  
C        C      0.425200000000     0.955500000000     0.661800000000     0.0221162  
C        C      0.442900000000     0.985600000000     0.714500000000     0.0221162  
C        C      0.277400000000     0.918500000000     0.577570000000     0.0221162  
C        C      0.824000000000     0.196800000000     0.977010000000     0.0221162  
C        C      0.699700000000     0.149300000000     0.959690000000     0.0221162  
C        C      0.690000000000     0.152500000000     0.894000000000     0.0221162  
C        C      0.615900000000     0.213600000000     0.866600000000     0.0221162  
C        C      0.606900000000     0.215600000000     0.808700000000     0.0221162  
C        C      0.678000000000     0.152600000000     0.778300000000     0.0221162  
C        C      0.741600000000     0.091700000000     0.802800000000     0.0221162  
C        C      0.749600000000     0.091400000000     0.862700000000     0.0221162  
C        C      0.241100000000     0.895200000000     0.393130000000     0.0221162  
C        C      0.254600000000     0.925100000000     0.332500000000     0.0221162  
C        C      0.377000000000     0.920600000000     0.306700000000     0.0221162  
C        C      0.392500000000     0.949600000000     0.252500000000     0.0221162  
C        C      0.288800000000     0.980600000000     0.221400000000     0.0221162  
C        C      0.161700000000     0.983500000000     0.246500000000     0.0221162  
C        C      0.149300000000     0.954800000000     0.302900000000     0.0221162  
C        C      0.300700000000     0.010300000000     0.165800000000     0.0221162  
C        C      0.199000000000     0.044700000000     0.136020000000     0.0221162  
C        C      0.074800000000     0.044500000000     0.161800000000     0.0221162  
C        C      0.057100000000     0.014400000000     0.214500000000     0.0221162  
C        C      0.222600000000     0.081500000000     0.077570000000     0.0221162  
C        C      0.676000000000     0.803200000000     0.477010000000     0.0221162  
C        C      0.800300000000     0.850700000000     0.459690000000     0.0221162  
C        C      0.810000000000     0.847500000000     0.394000000000     0.0221162  
C        C      0.884100000000     0.786400000000     0.366600000000     0.0221162  
C        C      0.893100000000     0.784400000000     0.308700000000     0.0221162  
C        C      0.822000000000     0.847400000000     0.278300000000     0.0221162  
C        C      0.758400000000     0.908300000000     0.302800000000     0.0221162  
C        C      0.750400000000     0.908600000000     0.362700000000     0.0221162  
C        C      0.741100000000     0.604800000000     0.606870000000     0.0221162  
C        C      0.754600000000     0.574900000000     0.667500000000     0.0221162  
C        C      0.877000000000     0.579400000000     0.693300000000     0.0221162  
C        C      0.892500000000     0.550400000000     0.747500000000     0.0221162  
C        C      0.788800000000     0.519400000000     0.778600000000     0.0221162  
C        C      0.661700000000     0.516500000000     0.753500000000     0.0221162  
C        C      0.649300000000     0.545200000000     0.697100000000     0.0221162  
C        C      0.800700000000     0.489700000000     0.834200000000     0.0221162  
C        C      0.699000000000     0.455300000000     0.863980000000     0.0221162  
C        C      0.574800000000     0.455500000000     0.838200000000     0.0221162  
C        C      0.557100000000     0.485600000000     0.785500000000     0.0221162  
C        C      0.722600000000     0.418500000000     0.922430000000     0.0221162  
C        C      0.176000000000     0.696800000000     0.522990000000     0.0221162  
C        C      0.300300000000     0.649300000000     0.540310000000     0.0221162  
C        C      0.310000000000     0.652500000000     0.606000000000     0.0221162  
C        C      0.384100000000     0.713600000000     0.633400000000     0.0221162  
C        C      0.393100000000     0.715600000000     0.691300000000     0.0221162  
C        C      0.322000000000     0.652600000000     0.721700000000     0.0221162  
C        C      0.258400000000     0.591700000000     0.697200000000     0.0221162  
C        C      0.250400000000     0.591400000000     0.637300000000     0.0221162  
C        C      0.758900000000     0.395200000000     0.106870000000     0.0221162  
C        C      0.745400000000     0.425100000000     0.167500000000     0.0221162  
C        C      0.623000000000     0.420600000000     0.193300000000     0.0221162  
C        C      0.607500000000     0.449600000000     0.247500000000     0.0221162  
C        C      0.711200000000     0.480600000000     0.278600000000     0.0221162  
C        C      0.838300000000     0.483500000000     0.253500000000     0.0221162  
C        C      0.850700000000     0.454800000000     0.197100000000     0.0221162  
C        C      0.699300000000     0.510300000000     0.334200000000     0.0221162  
C        C      0.801000000000     0.544700000000     0.363980000000     0.0221162  
C        C      0.925200000000     0.544500000000     0.338200000000     0.0221162  
C        C      0.942900000000     0.514400000000     0.285500000000     0.0221162  
C        C      0.777400000000     0.581500000000     0.422430000000     0.0221162  
C        C      0.324000000000     0.303200000000     0.022990000000     0.0221162  
C        C      0.199700000000     0.350700000000     0.040310000000     0.0221162  
C        C      0.190000000000     0.347500000000     0.106000000000     0.0221162  
C        C      0.115900000000     0.286400000000     0.133400000000     0.0221162  
C        C      0.106900000000     0.284400000000     0.191300000000     0.0221162  
C        C      0.178000000000     0.347400000000     0.221700000000     0.0221162  
C        C      0.241600000000     0.408300000000     0.197200000000     0.0221162  
C        C      0.249600000000     0.408600000000     0.137300000000     0.0221162  
O        O      0.362600000000     0.085400000000     0.918170000000    -0.296807   
O        O      0.162500000000     0.142500000000     0.913260000000    -0.296807   
O        O      0.161100000000     0.918500000000     0.560580000000    -0.296807   
O        O      0.376200000000     0.893100000000     0.551390000000    -0.296807   
O        O      0.589300000000     0.189000000000     0.985900000000    -0.296807   
O        O      0.811500000000     0.267220000000     0.001830000000    -0.296807   
O        O      0.928800000000     0.160600000000     0.966840000000    -0.296807   
O        O      0.137400000000     0.914600000000     0.418170000000    -0.296807   
O        O      0.337500000000     0.857500000000     0.413260000000    -0.296807   
O        O      0.338900000000     0.081500000000     0.060580000000    -0.296807   
O        O      0.123800000000     0.106900000000     0.051390000000    -0.296807   
O        O      0.910700000000     0.811000000000     0.485900000000    -0.296807   
O        O      0.688500000000     0.732780000000     0.501830000000    -0.296807   
O        O      0.571200000000     0.839400000000     0.466840000000    -0.296807   
O        O      0.637400000000     0.585400000000     0.581830000000    -0.296807   
O        O      0.837500000000     0.642500000000     0.586740000000    -0.296807   
O        O      0.838900000000     0.418500000000     0.939420000000    -0.296807   
O        O      0.623800000000     0.393100000000     0.948610000000    -0.296807   
O        O      0.410700000000     0.689000000000     0.514100000000    -0.296807   
O        O      0.188500000000     0.767220000000     0.498170000000    -0.296807   
O        O      0.071200000000     0.660600000000     0.533160000000    -0.296807   
O        O      0.862600000000     0.414600000000     0.081830000000    -0.296807   
O        O      0.662500000000     0.357500000000     0.086740000000    -0.296807   
O        O      0.661100000000     0.581500000000     0.439420000000    -0.296807   
O        O      0.876200000000     0.606900000000     0.448610000000    -0.296807   
O        O      0.089300000000     0.311000000000     0.014100000000    -0.296807   
O        O      0.311500000000     0.232780000000     0.998170000000    -0.296807   
O        O      0.428800000000     0.339400000000     0.033160000000    -0.296807   


