data_GAYFOD_original

_audit_creation_method RASPA-1.0
_audit_creation_date 2022-1-30
_audit_author_name 'Felipe Lopes de Oliveira <felipe.lopes.oliveira@ibm.com>'

_cell_length_a    7.3007
_cell_length_b    8.8312
_cell_length_c    8.8312
_cell_angle_alpha 90
_cell_angle_beta  90
_cell_angle_gamma 90
_cell_volume      569.382

_symmetry_cell_setting          triclinic
_symmetry_space_group_name_Hall 'P 1'
_symmetry_space_group_name_H-M  'P 1'
_symmetry_Int_Tables_number     1

_symmetry_equiv_pos_as_xyz 'x,y,z'

loop_
_atom_site_label
_atom_site_type_symbol
_atom_site_fract_x
_atom_site_fract_y
_atom_site_fract_z
_atom_site_charge
Zn       Zn     0.750000000000     0.000000000000     0.000000000000     0.311965   
Zn       Zn     0.250000000000     0.000000000000     0.000000000000     0.311965   
H        H      0.725540000000     0.382000000000     0.000000000000     0.0264796  
H        H      0.725540000000     0.618000000000     0.000000000000     0.0264796  
H        H      0.225540000000     0.000000000000     0.382000000000     0.0264796  
H        H      0.225540000000     0.000000000000     0.618000000000     0.0264796  
H        H      0.274460000000     0.618000000000     0.000000000000     0.0264796  
H        H      0.274460000000     0.382000000000     0.000000000000     0.0264796  
H        H      0.774460000000     0.000000000000     0.382000000000     0.0264796  
H        H      0.774460000000     0.000000000000     0.618000000000     0.0264796  
C        C      0.000000000000     0.439280000000     0.000000000000     0.00707372 
C        C      0.000000000000     0.560720000000     0.000000000000     0.00707372 
C        C      0.500000000000     0.000000000000     0.439280000000     0.00707372 
C        C      0.500000000000     0.000000000000     0.560720000000     0.00707372 
C        C      0.849290000000     0.348760000000     0.000000000000     0.00707372 
C        C      0.849290000000     0.651240000000     0.000000000000     0.00707372 
C        C      0.349290000000     0.000000000000     0.348760000000     0.00707372 
C        C      0.349290000000     0.000000000000     0.651240000000     0.00707372 
C        C      0.150710000000     0.651240000000     0.000000000000     0.00707372 
C        C      0.150710000000     0.348760000000     0.000000000000     0.00707372 
C        C      0.650710000000     0.000000000000     0.348760000000     0.00707372 
C        C      0.650710000000     0.000000000000     0.651240000000     0.00707372 
N        N      0.906860000000     0.202300000000     0.000000000000    -0.115081   
N        N      0.906860000000     0.797700000000     0.000000000000    -0.115081   
N        N      0.406860000000     0.000000000000     0.202300000000    -0.115081   
N        N      0.406860000000     0.000000000000     0.797700000000    -0.115081   
N        N      0.093140000000     0.797700000000     0.000000000000    -0.115081   
N        N      0.093140000000     0.202300000000     0.000000000000    -0.115081   
N        N      0.593140000000     0.000000000000     0.202300000000    -0.115081   
N        N      0.593140000000     0.000000000000     0.797700000000    -0.115081   


