data_GEDLIM_original

_audit_creation_method RASPA-1.0
_audit_creation_date 2022-1-31
_audit_author_name 'Felipe Lopes de Oliveira <felipe.lopes.oliveira@ibm.com>'

_cell_length_a    12.8842
_cell_length_b    14.5956
_cell_length_c    14.5956
_cell_angle_alpha 90
_cell_angle_beta  90
_cell_angle_gamma 90
_cell_volume      2744.74

_symmetry_cell_setting          triclinic
_symmetry_space_group_name_Hall 'P 1'
_symmetry_space_group_name_H-M  'P 1'
_symmetry_Int_Tables_number     1

_symmetry_equiv_pos_as_xyz 'x,y,z'

loop_
_atom_site_label
_atom_site_type_symbol
_atom_site_fract_x
_atom_site_fract_y
_atom_site_fract_z
_atom_site_charge
Zn       Zn     0.000000000000     0.500000000000     0.000000000000     0.41396    
Zn       Zn     0.500000000000     0.000000000000     0.500000000000     0.41396    
Zn       Zn     0.000000000000     0.000000000000     0.500000000000     0.41396    
Zn       Zn     0.500000000000     0.500000000000     0.000000000000     0.41396    
H        H      0.978400000000     0.191700000000     0.188600000000     0.141822   
H        H      0.862000000000     0.098500000000     0.270300000000     0.141822   
H        H      0.623100000000     0.243700000000     0.168800000000     0.141822   
H        H      0.736500000000     0.338000000000     0.090400000000     0.141822   
H        H      0.563600000000     0.057800000000     0.178800000000     0.141822   
H        H      0.787300000000     0.095700000000     0.443000000000     0.141822   
H        H      0.747800000000     0.195100000000     0.416800000000     0.141822   
H        H      0.691900000000     0.139400000000     0.495800000000     0.141822   
H        H      0.978400000000     0.808300000000     0.811400000000     0.141822   
H        H      0.862000000000     0.901500000000     0.729700000000     0.141822   
H        H      0.623100000000     0.756300000000     0.831200000000     0.141822   
H        H      0.736500000000     0.662000000000     0.909600000000     0.141822   
H        H      0.563600000000     0.942200000000     0.821200000000     0.141822   
H        H      0.787300000000     0.904300000000     0.557000000000     0.141822   
H        H      0.747800000000     0.804900000000     0.583200000000     0.141822   
H        H      0.691900000000     0.860600000000     0.504200000000     0.141822   
H        H      0.478400000000     0.691700000000     0.311400000000     0.141822   
H        H      0.362000000000     0.598500000000     0.229700000000     0.141822   
H        H      0.123100000000     0.743700000000     0.331200000000     0.141822   
H        H      0.236500000000     0.838000000000     0.409600000000     0.141822   
H        H      0.063600000000     0.557800000000     0.321200000000     0.141822   
H        H      0.287300000000     0.595700000000     0.057000000000     0.141822   
H        H      0.247800000000     0.695100000000     0.083200000000     0.141822   
H        H      0.191900000000     0.639400000000     0.004200000000     0.141822   
H        H      0.478400000000     0.308300000000     0.688600000000     0.141822   
H        H      0.362000000000     0.401500000000     0.770300000000     0.141822   
H        H      0.123100000000     0.256300000000     0.668800000000     0.141822   
H        H      0.236500000000     0.162000000000     0.590400000000     0.141822   
H        H      0.063600000000     0.442200000000     0.678800000000     0.141822   
H        H      0.287300000000     0.404300000000     0.943000000000     0.141822   
H        H      0.247800000000     0.304900000000     0.916800000000     0.141822   
H        H      0.191900000000     0.360600000000     0.995800000000     0.141822   
H        H      0.978400000000     0.811400000000     0.191700000000     0.141822   
H        H      0.862000000000     0.729700000000     0.098500000000     0.141822   
H        H      0.623100000000     0.831200000000     0.243700000000     0.141822   
H        H      0.736500000000     0.909600000000     0.338000000000     0.141822   
H        H      0.563600000000     0.821200000000     0.057800000000     0.141822   
H        H      0.787300000000     0.557000000000     0.095700000000     0.141822   
H        H      0.747800000000     0.583200000000     0.195100000000     0.141822   
H        H      0.691900000000     0.504200000000     0.139400000000     0.141822   
H        H      0.978400000000     0.188600000000     0.808300000000     0.141822   
H        H      0.862000000000     0.270300000000     0.901500000000     0.141822   
H        H      0.623100000000     0.168800000000     0.756300000000     0.141822   
H        H      0.736500000000     0.090400000000     0.662000000000     0.141822   
H        H      0.563600000000     0.178800000000     0.942200000000     0.141822   
H        H      0.787300000000     0.443000000000     0.904300000000     0.141822   
H        H      0.747800000000     0.416800000000     0.804900000000     0.141822   
H        H      0.691900000000     0.495800000000     0.860600000000     0.141822   
H        H      0.478400000000     0.311400000000     0.308300000000     0.141822   
H        H      0.362000000000     0.229700000000     0.401500000000     0.141822   
H        H      0.123100000000     0.331200000000     0.256300000000     0.141822   
H        H      0.236500000000     0.409600000000     0.162000000000     0.141822   
H        H      0.063600000000     0.321200000000     0.442200000000     0.141822   
H        H      0.287300000000     0.057000000000     0.404300000000     0.141822   
H        H      0.247800000000     0.083200000000     0.304900000000     0.141822   
H        H      0.191900000000     0.004200000000     0.360600000000     0.141822   
H        H      0.478400000000     0.688600000000     0.691700000000     0.141822   
H        H      0.362000000000     0.770300000000     0.598500000000     0.141822   
H        H      0.123100000000     0.668800000000     0.743700000000     0.141822   
H        H      0.236500000000     0.590400000000     0.838000000000     0.141822   
H        H      0.063600000000     0.678800000000     0.557800000000     0.141822   
H        H      0.287300000000     0.943000000000     0.595700000000     0.141822   
H        H      0.247800000000     0.916800000000     0.695100000000     0.141822   
H        H      0.191900000000     0.995800000000     0.639400000000     0.141822   
C        C      0.944500000000     0.335300000000     0.080200000000    -0.0242603  
C        C      0.869900000000     0.273400000000     0.128900000000    -0.0242603  
C        C      0.906600000000     0.202300000000     0.184200000000    -0.0242603  
C        C      0.837600000000     0.146500000000     0.233300000000    -0.0242603  
C        C      0.732300000000     0.164200000000     0.225600000000    -0.0242603  
C        C      0.695000000000     0.233700000000     0.172800000000    -0.0242603  
C        C      0.762500000000     0.289100000000     0.125400000000    -0.0242603  
C        C      0.578800000000     0.060700000000     0.241700000000    -0.0242603  
C        C      0.655300000000     0.094700000000     0.369500000000    -0.0242603  
C        C      0.726600000000     0.134600000000     0.437000000000    -0.0242603  
C        C      0.944500000000     0.664700000000     0.919800000000    -0.0242603  
C        C      0.869900000000     0.726600000000     0.871100000000    -0.0242603  
C        C      0.906600000000     0.797700000000     0.815800000000    -0.0242603  
C        C      0.837600000000     0.853500000000     0.766700000000    -0.0242603  
C        C      0.732300000000     0.835800000000     0.774400000000    -0.0242603  
C        C      0.695000000000     0.766300000000     0.827200000000    -0.0242603  
C        C      0.762500000000     0.710900000000     0.874600000000    -0.0242603  
C        C      0.578800000000     0.939300000000     0.758300000000    -0.0242603  
C        C      0.655300000000     0.905300000000     0.630500000000    -0.0242603  
C        C      0.726600000000     0.865400000000     0.563000000000    -0.0242603  
C        C      0.444500000000     0.835300000000     0.419800000000    -0.0242603  
C        C      0.369900000000     0.773400000000     0.371100000000    -0.0242603  
C        C      0.406600000000     0.702300000000     0.315800000000    -0.0242603  
C        C      0.337600000000     0.646500000000     0.266700000000    -0.0242603  
C        C      0.232300000000     0.664200000000     0.274400000000    -0.0242603  
C        C      0.195000000000     0.733700000000     0.327200000000    -0.0242603  
C        C      0.262500000000     0.789100000000     0.374600000000    -0.0242603  
C        C      0.078800000000     0.560700000000     0.258300000000    -0.0242603  
C        C      0.155300000000     0.594700000000     0.130500000000    -0.0242603  
C        C      0.226600000000     0.634600000000     0.063000000000    -0.0242603  
C        C      0.444500000000     0.164700000000     0.580200000000    -0.0242603  
C        C      0.369900000000     0.226600000000     0.628900000000    -0.0242603  
C        C      0.406600000000     0.297700000000     0.684200000000    -0.0242603  
C        C      0.337600000000     0.353500000000     0.733300000000    -0.0242603  
C        C      0.232300000000     0.335800000000     0.725600000000    -0.0242603  
C        C      0.195000000000     0.266300000000     0.672800000000    -0.0242603  
C        C      0.262500000000     0.210900000000     0.625400000000    -0.0242603  
C        C      0.078800000000     0.439300000000     0.741700000000    -0.0242603  
C        C      0.155300000000     0.405300000000     0.869500000000    -0.0242603  
C        C      0.226600000000     0.365400000000     0.937000000000    -0.0242603  
C        C      0.944500000000     0.919800000000     0.335300000000    -0.0242603  
C        C      0.869900000000     0.871100000000     0.273400000000    -0.0242603  
C        C      0.906600000000     0.815800000000     0.202300000000    -0.0242603  
C        C      0.837600000000     0.766700000000     0.146500000000    -0.0242603  
C        C      0.732300000000     0.774400000000     0.164200000000    -0.0242603  
C        C      0.695000000000     0.827200000000     0.233700000000    -0.0242603  
C        C      0.762500000000     0.874600000000     0.289100000000    -0.0242603  
C        C      0.578800000000     0.758300000000     0.060700000000    -0.0242603  
C        C      0.655300000000     0.630500000000     0.094700000000    -0.0242603  
C        C      0.726600000000     0.563000000000     0.134600000000    -0.0242603  
C        C      0.944500000000     0.080200000000     0.664700000000    -0.0242603  
C        C      0.869900000000     0.128900000000     0.726600000000    -0.0242603  
C        C      0.906600000000     0.184200000000     0.797700000000    -0.0242603  
C        C      0.837600000000     0.233300000000     0.853500000000    -0.0242603  
C        C      0.732300000000     0.225600000000     0.835800000000    -0.0242603  
C        C      0.695000000000     0.172800000000     0.766300000000    -0.0242603  
C        C      0.762500000000     0.125400000000     0.710900000000    -0.0242603  
C        C      0.578800000000     0.241700000000     0.939300000000    -0.0242603  
C        C      0.655300000000     0.369500000000     0.905300000000    -0.0242603  
C        C      0.726600000000     0.437000000000     0.865400000000    -0.0242603  
C        C      0.444500000000     0.419800000000     0.164700000000    -0.0242603  
C        C      0.369900000000     0.371100000000     0.226600000000    -0.0242603  
C        C      0.406600000000     0.315800000000     0.297700000000    -0.0242603  
C        C      0.337600000000     0.266700000000     0.353500000000    -0.0242603  
C        C      0.232300000000     0.274400000000     0.335800000000    -0.0242603  
C        C      0.195000000000     0.327200000000     0.266300000000    -0.0242603  
C        C      0.262500000000     0.374600000000     0.210900000000    -0.0242603  
C        C      0.078800000000     0.258300000000     0.439300000000    -0.0242603  
C        C      0.155300000000     0.130500000000     0.405300000000    -0.0242603  
C        C      0.226600000000     0.063000000000     0.365400000000    -0.0242603  
C        C      0.444500000000     0.580200000000     0.835300000000    -0.0242603  
C        C      0.369900000000     0.628900000000     0.773400000000    -0.0242603  
C        C      0.406600000000     0.684200000000     0.702300000000    -0.0242603  
C        C      0.337600000000     0.733300000000     0.646500000000    -0.0242603  
C        C      0.232300000000     0.725600000000     0.664200000000    -0.0242603  
C        C      0.195000000000     0.672800000000     0.733700000000    -0.0242603  
C        C      0.262500000000     0.625400000000     0.789100000000    -0.0242603  
C        C      0.078800000000     0.741700000000     0.560700000000    -0.0242603  
C        C      0.155300000000     0.869500000000     0.594700000000    -0.0242603  
C        C      0.226600000000     0.937000000000     0.634600000000    -0.0242603  
N        N      0.524000000000     0.019800000000     0.304800000000    -0.166199   
N        N      0.574000000000     0.041700000000     0.386200000000    -0.166199   
N        N      0.660500000000     0.108300000000     0.277500000000    -0.166199   
N        N      0.524000000000     0.980200000000     0.695200000000    -0.166199   
N        N      0.574000000000     0.958300000000     0.613800000000    -0.166199   
N        N      0.660500000000     0.891700000000     0.722500000000    -0.166199   
N        N      0.024000000000     0.519800000000     0.195200000000    -0.166199   
N        N      0.074000000000     0.541700000000     0.113800000000    -0.166199   
N        N      0.160500000000     0.608300000000     0.222500000000    -0.166199   
N        N      0.024000000000     0.480200000000     0.804800000000    -0.166199   
N        N      0.074000000000     0.458300000000     0.886200000000    -0.166199   
N        N      0.160500000000     0.391700000000     0.777500000000    -0.166199   
N        N      0.524000000000     0.695200000000     0.019800000000    -0.166199   
N        N      0.574000000000     0.613800000000     0.041700000000    -0.166199   
N        N      0.660500000000     0.722500000000     0.108300000000    -0.166199   
N        N      0.524000000000     0.304800000000     0.980200000000    -0.166199   
N        N      0.574000000000     0.386200000000     0.958300000000    -0.166199   
N        N      0.660500000000     0.277500000000     0.891700000000    -0.166199   
N        N      0.024000000000     0.195200000000     0.480200000000    -0.166199   
N        N      0.074000000000     0.113800000000     0.458300000000    -0.166199   
N        N      0.160500000000     0.222500000000     0.391700000000    -0.166199   
N        N      0.024000000000     0.804800000000     0.519800000000    -0.166199   
N        N      0.074000000000     0.886200000000     0.541700000000    -0.166199   
N        N      0.160500000000     0.777500000000     0.608300000000    -0.166199   
O        O      0.902700000000     0.404300000000     0.040100000000    -0.300179   
O        O      0.039200000000     0.318100000000     0.080000000000    -0.300179   
O        O      0.902700000000     0.595700000000     0.959900000000    -0.300179   
O        O      0.039200000000     0.681900000000     0.920000000000    -0.300179   
O        O      0.402700000000     0.904300000000     0.459900000000    -0.300179   
O        O      0.539200000000     0.818100000000     0.420000000000    -0.300179   
O        O      0.402700000000     0.095700000000     0.540100000000    -0.300179   
O        O      0.539200000000     0.181900000000     0.580000000000    -0.300179   
O        O      0.902700000000     0.959900000000     0.404300000000    -0.300179   
O        O      0.039200000000     0.920000000000     0.318100000000    -0.300179   
O        O      0.902700000000     0.040100000000     0.595700000000    -0.300179   
O        O      0.039200000000     0.080000000000     0.681900000000    -0.300179   
O        O      0.402700000000     0.459900000000     0.095700000000    -0.300179   
O        O      0.539200000000     0.420000000000     0.181900000000    -0.300179   
O        O      0.402700000000     0.540100000000     0.904300000000    -0.300179   
O        O      0.539200000000     0.580000000000     0.818100000000    -0.300179   


