data_GEGSIW_original

_audit_creation_method RASPA-1.0
_audit_creation_date 2022-1-31
_audit_author_name 'Felipe Lopes de Oliveira <felipe.lopes.oliveira@ibm.com>'

_cell_length_a    14.2543
_cell_length_b    15.4448
_cell_length_c    15.4448
_cell_angle_alpha 102.445
_cell_angle_beta  90
_cell_angle_gamma 90
_cell_volume      3320.35

_symmetry_cell_setting          triclinic
_symmetry_space_group_name_Hall 'P 1'
_symmetry_space_group_name_H-M  'P 1'
_symmetry_Int_Tables_number     1

_symmetry_equiv_pos_as_xyz 'x,y,z'

loop_
_atom_site_label
_atom_site_type_symbol
_atom_site_fract_x
_atom_site_fract_y
_atom_site_fract_z
_atom_site_charge
Ca       Ca     0.110820000000     0.961180000000     0.559580000000     1.35668    
Ca       Ca     0.610820000000     0.538820000000     0.940420000000     1.35668    
Ca       Ca     0.389180000000     0.940420000000     0.538820000000     1.35668    
Ca       Ca     0.889180000000     0.559580000000     0.961180000000     1.35668    
Ca       Ca     0.889180000000     0.038820000000     0.440420000000     1.35668    
Ca       Ca     0.389180000000     0.461180000000     0.059580000000     1.35668    
Ca       Ca     0.610820000000     0.059580000000     0.461180000000     1.35668    
Ca       Ca     0.110820000000     0.440420000000     0.038820000000     1.35668    
H        H      0.890600000000     0.788100000000     0.698700000000     0.0350206  
H        H      0.886600000000     0.703900000000     0.797900000000     0.0350206  
H        H      0.326200000000     0.899800000000     0.307400000000     0.0350206  
H        H      0.390600000000     0.711900000000     0.801300000000     0.0350206  
H        H      0.386600000000     0.796100000000     0.702100000000     0.0350206  
H        H      0.826200000000     0.600200000000     0.192600000000     0.0350206  
H        H      0.609400000000     0.801300000000     0.711900000000     0.0350206  
H        H      0.613400000000     0.702100000000     0.796100000000     0.0350206  
H        H      0.173800000000     0.192600000000     0.600200000000     0.0350206  
H        H      0.109400000000     0.698700000000     0.788100000000     0.0350206  
H        H      0.113400000000     0.797900000000     0.703900000000     0.0350206  
H        H      0.673800000000     0.307400000000     0.899800000000     0.0350206  
H        H      0.109400000000     0.211900000000     0.301300000000     0.0350206  
H        H      0.113400000000     0.296100000000     0.202100000000     0.0350206  
H        H      0.673800000000     0.100200000000     0.692600000000     0.0350206  
H        H      0.609400000000     0.288100000000     0.198700000000     0.0350206  
H        H      0.613400000000     0.203900000000     0.297900000000     0.0350206  
H        H      0.173800000000     0.399800000000     0.807400000000     0.0350206  
H        H      0.390600000000     0.198700000000     0.288100000000     0.0350206  
H        H      0.386600000000     0.297900000000     0.203900000000     0.0350206  
H        H      0.826200000000     0.807400000000     0.399800000000     0.0350206  
H        H      0.890600000000     0.301300000000     0.211900000000     0.0350206  
H        H      0.886600000000     0.202100000000     0.296100000000     0.0350206  
H        H      0.326200000000     0.692600000000     0.100200000000     0.0350206  
H        H      0.750000000000     0.939300000000     0.560700000000     0.0350206  
H        H      0.250000000000     0.560700000000     0.939300000000     0.0350206  
H        H      0.250000000000     0.060700000000     0.439300000000     0.0350206  
H        H      0.750000000000     0.439300000000     0.060700000000     0.0350206  
H        H      0.130200000000     0.710500000000     0.289500000000     0.0350206  
H        H      0.630200000000     0.789500000000     0.210500000000     0.0350206  
H        H      0.369800000000     0.210500000000     0.789500000000     0.0350206  
H        H      0.869800000000     0.289500000000     0.710500000000     0.0350206  
C        C      0.926900000000     0.897390000000     0.592570000000     0.0760313  
C        C      0.834420000000     0.810390000000     0.682050000000     0.0760313  
C        C      0.834520000000     0.868650000000     0.624670000000     0.0760313  
C        C      0.188370000000     0.856060000000     0.402400000000     0.0760313  
C        C      0.824400000000     0.692060000000     0.809420000000     0.0760313  
C        C      0.225400000000     0.810970000000     0.313290000000     0.0760313  
C        C      0.299600000000     0.846980000000     0.277100000000     0.0760313  
C        C      0.446100000000     0.816700000000     0.076300000000     0.0760313  
C        C      0.426900000000     0.602610000000     0.907430000000     0.0760313  
C        C      0.334420000000     0.689610000000     0.817950000000     0.0760313  
C        C      0.334520000000     0.631350000000     0.875330000000     0.0760313  
C        C      0.688370000000     0.643940000000     0.097600000000     0.0760313  
C        C      0.324400000000     0.807940000000     0.690580000000     0.0760313  
C        C      0.725400000000     0.689030000000     0.186710000000     0.0760313  
C        C      0.799600000000     0.653020000000     0.222900000000     0.0760313  
C        C      0.946100000000     0.683300000000     0.423700000000     0.0760313  
C        C      0.573100000000     0.907430000000     0.602610000000     0.0760313  
C        C      0.665580000000     0.817950000000     0.689610000000     0.0760313  
C        C      0.665480000000     0.875330000000     0.631350000000     0.0760313  
C        C      0.311630000000     0.097600000000     0.643940000000     0.0760313  
C        C      0.675600000000     0.690580000000     0.807940000000     0.0760313  
C        C      0.274600000000     0.186710000000     0.689030000000     0.0760313  
C        C      0.200400000000     0.222900000000     0.653020000000     0.0760313  
C        C      0.053900000000     0.423700000000     0.683300000000     0.0760313  
C        C      0.073100000000     0.592570000000     0.897390000000     0.0760313  
C        C      0.165580000000     0.682050000000     0.810390000000     0.0760313  
C        C      0.165480000000     0.624670000000     0.868650000000     0.0760313  
C        C      0.811630000000     0.402400000000     0.856060000000     0.0760313  
C        C      0.175600000000     0.809420000000     0.692060000000     0.0760313  
C        C      0.774600000000     0.313290000000     0.810970000000     0.0760313  
C        C      0.700400000000     0.277100000000     0.846980000000     0.0760313  
C        C      0.553900000000     0.076300000000     0.816700000000     0.0760313  
C        C      0.073100000000     0.102610000000     0.407430000000     0.0760313  
C        C      0.165580000000     0.189610000000     0.317950000000     0.0760313  
C        C      0.165480000000     0.131350000000     0.375330000000     0.0760313  
C        C      0.811630000000     0.143940000000     0.597600000000     0.0760313  
C        C      0.175600000000     0.307940000000     0.190580000000     0.0760313  
C        C      0.774600000000     0.189030000000     0.686710000000     0.0760313  
C        C      0.700400000000     0.153020000000     0.722900000000     0.0760313  
C        C      0.553900000000     0.183300000000     0.923700000000     0.0760313  
C        C      0.573100000000     0.397390000000     0.092570000000     0.0760313  
C        C      0.665580000000     0.310390000000     0.182050000000     0.0760313  
C        C      0.665480000000     0.368650000000     0.124670000000     0.0760313  
C        C      0.311630000000     0.356060000000     0.902400000000     0.0760313  
C        C      0.675600000000     0.192060000000     0.309420000000     0.0760313  
C        C      0.274600000000     0.310970000000     0.813290000000     0.0760313  
C        C      0.200400000000     0.346980000000     0.777100000000     0.0760313  
C        C      0.053900000000     0.316700000000     0.576300000000     0.0760313  
C        C      0.426900000000     0.092570000000     0.397390000000     0.0760313  
C        C      0.334420000000     0.182050000000     0.310390000000     0.0760313  
C        C      0.334520000000     0.124670000000     0.368650000000     0.0760313  
C        C      0.688370000000     0.902400000000     0.356060000000     0.0760313  
C        C      0.324400000000     0.309420000000     0.192060000000     0.0760313  
C        C      0.725400000000     0.813290000000     0.310970000000     0.0760313  
C        C      0.799600000000     0.777100000000     0.346980000000     0.0760313  
C        C      0.946100000000     0.576300000000     0.316700000000     0.0760313  
C        C      0.926900000000     0.407430000000     0.102610000000     0.0760313  
C        C      0.834420000000     0.317950000000     0.189610000000     0.0760313  
C        C      0.834520000000     0.375330000000     0.131350000000     0.0760313  
C        C      0.188370000000     0.597600000000     0.143940000000     0.0760313  
C        C      0.824400000000     0.190580000000     0.307940000000     0.0760313  
C        C      0.225400000000     0.686710000000     0.189030000000     0.0760313  
C        C      0.299600000000     0.722900000000     0.153020000000     0.0760313  
C        C      0.446100000000     0.923700000000     0.183300000000     0.0760313  
C        C      0.750000000000     0.900650000000     0.599350000000     0.0760313  
C        C      0.750000000000     0.785950000000     0.714050000000     0.0760313  
C        C      0.250000000000     0.599350000000     0.900650000000     0.0760313  
C        C      0.250000000000     0.714050000000     0.785950000000     0.0760313  
C        C      0.250000000000     0.099350000000     0.400650000000     0.0760313  
C        C      0.250000000000     0.214050000000     0.285950000000     0.0760313  
C        C      0.750000000000     0.400650000000     0.099350000000     0.0760313  
C        C      0.750000000000     0.285950000000     0.214050000000     0.0760313  
C        C      0.184200000000     0.732240000000     0.267760000000     0.0760313  
C        C      0.335000000000     0.804690000000     0.195310000000     0.0760313  
C        C      0.684200000000     0.767760000000     0.232240000000     0.0760313  
C        C      0.835000000000     0.695310000000     0.304690000000     0.0760313  
C        C      0.315800000000     0.232240000000     0.767760000000     0.0760313  
C        C      0.165000000000     0.304690000000     0.695310000000     0.0760313  
C        C      0.815800000000     0.267760000000     0.732240000000     0.0760313  
C        C      0.665000000000     0.195310000000     0.804690000000     0.0760313  
N        N      0.798240000000     0.641040000000     0.861500000000    -0.148477   
N        N      0.503700000000     0.876800000000     0.056000000000    -0.148477   
N        N      0.298240000000     0.858960000000     0.638500000000    -0.148477   
N        N      0.003700000000     0.623200000000     0.444000000000    -0.148477   
N        N      0.701760000000     0.638500000000     0.858960000000    -0.148477   
N        N      0.996300000000     0.444000000000     0.623200000000    -0.148477   
N        N      0.201760000000     0.861500000000     0.641040000000    -0.148477   
N        N      0.496300000000     0.056000000000     0.876800000000    -0.148477   
N        N      0.201760000000     0.358960000000     0.138500000000    -0.148477   
N        N      0.496300000000     0.123200000000     0.944000000000    -0.148477   
N        N      0.701760000000     0.141040000000     0.361500000000    -0.148477   
N        N      0.996300000000     0.376800000000     0.556000000000    -0.148477   
N        N      0.298240000000     0.361500000000     0.141040000000    -0.148477   
N        N      0.003700000000     0.556000000000     0.376800000000    -0.148477   
N        N      0.798240000000     0.138500000000     0.358960000000    -0.148477   
N        N      0.503700000000     0.944000000000     0.123200000000    -0.148477   
N        N      0.750000000000     0.725950000000     0.774050000000    -0.148477   
N        N      0.250000000000     0.774050000000     0.725950000000    -0.148477   
N        N      0.250000000000     0.274050000000     0.225950000000    -0.148477   
N        N      0.750000000000     0.225950000000     0.274050000000    -0.148477   
N        N      0.406900000000     0.845820000000     0.154180000000    -0.148477   
N        N      0.906900000000     0.654180000000     0.345820000000    -0.148477   
N        N      0.093100000000     0.345820000000     0.654180000000    -0.148477   
N        N      0.593100000000     0.154180000000     0.845820000000    -0.148477   
O        O      0.245430000000     0.899980000000     0.457200000000    -0.452912   
O        O      0.102470000000     0.849240000000     0.419700000000    -0.452912   
O        O      0.000210000000     0.873500000000     0.623540000000    -0.452912   
O        O      0.926340000000     0.944050000000     0.534930000000    -0.452912   
O        O      0.745430000000     0.600020000000     0.042800000000    -0.452912   
O        O      0.602470000000     0.650760000000     0.080300000000    -0.452912   
O        O      0.500210000000     0.626500000000     0.876460000000    -0.452912   
O        O      0.426340000000     0.555950000000     0.965070000000    -0.452912   
O        O      0.254570000000     0.042800000000     0.600020000000    -0.452912   
O        O      0.397530000000     0.080300000000     0.650760000000    -0.452912   
O        O      0.499790000000     0.876460000000     0.626500000000    -0.452912   
O        O      0.573660000000     0.965070000000     0.555950000000    -0.452912   
O        O      0.754570000000     0.457200000000     0.899980000000    -0.452912   
O        O      0.897530000000     0.419700000000     0.849240000000    -0.452912   
O        O      0.999790000000     0.623540000000     0.873500000000    -0.452912   
O        O      0.073660000000     0.534930000000     0.944050000000    -0.452912   
O        O      0.754570000000     0.100020000000     0.542800000000    -0.452912   
O        O      0.897530000000     0.150760000000     0.580300000000    -0.452912   
O        O      0.999790000000     0.126500000000     0.376460000000    -0.452912   
O        O      0.073660000000     0.055950000000     0.465070000000    -0.452912   
O        O      0.254570000000     0.399980000000     0.957200000000    -0.452912   
O        O      0.397530000000     0.349240000000     0.919700000000    -0.452912   
O        O      0.499790000000     0.373500000000     0.123540000000    -0.452912   
O        O      0.573660000000     0.444050000000     0.034930000000    -0.452912   
O        O      0.745430000000     0.957200000000     0.399980000000    -0.452912   
O        O      0.602470000000     0.919700000000     0.349240000000    -0.452912   
O        O      0.500210000000     0.123540000000     0.373500000000    -0.452912   
O        O      0.426340000000     0.034930000000     0.444050000000    -0.452912   
O        O      0.245430000000     0.542800000000     0.100020000000    -0.452912   
O        O      0.102470000000     0.580300000000     0.150760000000    -0.452912   
O        O      0.000210000000     0.376460000000     0.126500000000    -0.452912   
O        O      0.926340000000     0.465070000000     0.055950000000    -0.452912   


