data_GEHSAN_original

_audit_creation_method RASPA-1.0
_audit_creation_date 2022-1-30
_audit_author_name 'Felipe Lopes de Oliveira <felipe.lopes.oliveira@ibm.com>'

_cell_length_a    8.8147
_cell_length_b    8.8147
_cell_length_c    13.735
_cell_angle_alpha 94.5895
_cell_angle_beta  94.5895
_cell_angle_gamma 100.254
_cell_volume      1041.94

_symmetry_cell_setting          triclinic
_symmetry_space_group_name_Hall 'P 1'
_symmetry_space_group_name_H-M  'P 1'
_symmetry_Int_Tables_number     1

_symmetry_equiv_pos_as_xyz 'x,y,z'

loop_
_atom_site_label
_atom_site_type_symbol
_atom_site_fract_x
_atom_site_fract_y
_atom_site_fract_z
_atom_site_charge
Ca       Ca     0.875900000000     0.574300000000     0.604000000000     1.1042     
Ca       Ca     0.425700000000     0.124100000000     0.896000000000     1.1042     
Ca       Ca     0.124100000000     0.425700000000     0.396000000000     1.1042     
Ca       Ca     0.574300000000     0.875900000000     0.104000000000     1.1042     
Fe       Fe     0.500000000000     0.000000000000     0.500000000000     0.636834   
Fe       Fe     0.000000000000     0.500000000000     0.000000000000     0.636834   
H        H      0.481900000000     0.459100000000     0.553800000000     0.0447328  
H        H      0.448600000000     0.627400000000     0.620600000000     0.0447328  
H        H      0.580300000000     0.728100000000     0.707800000000     0.0447328  
H        H      0.743900000000     0.740500000000     0.792800000000     0.0447328  
H        H      0.251600000000     0.637600000000     0.787800000000     0.0447328  
H        H      0.699600000000     0.413800000000     0.808100000000     0.0447328  
H        H      0.962800000000     0.689000000000     0.407900000000     0.0447328  
H        H      0.836100000000     0.533100000000     0.392100000000     0.0447328  
H        H      0.540900000000     0.518100000000     0.946200000000     0.0447328  
H        H      0.372600000000     0.551400000000     0.879400000000     0.0447328  
H        H      0.271900000000     0.419700000000     0.792200000000     0.0447328  
H        H      0.259500000000     0.256100000000     0.707200000000     0.0447328  
H        H      0.362400000000     0.748400000000     0.712200000000     0.0447328  
H        H      0.586200000000     0.300400000000     0.691900000000     0.0447328  
H        H      0.311000000000     0.037200000000     0.092100000000     0.0447328  
H        H      0.466900000000     0.163900000000     0.107900000000     0.0447328  
H        H      0.518100000000     0.540900000000     0.446200000000     0.0447328  
H        H      0.551400000000     0.372600000000     0.379400000000     0.0447328  
H        H      0.419700000000     0.271900000000     0.292200000000     0.0447328  
H        H      0.256100000000     0.259500000000     0.207200000000     0.0447328  
H        H      0.748400000000     0.362400000000     0.212200000000     0.0447328  
H        H      0.300400000000     0.586200000000     0.191900000000     0.0447328  
H        H      0.037200000000     0.311000000000     0.592100000000     0.0447328  
H        H      0.163900000000     0.466900000000     0.607900000000     0.0447328  
H        H      0.459100000000     0.481900000000     0.053800000000     0.0447328  
H        H      0.627400000000     0.448600000000     0.120600000000     0.0447328  
H        H      0.728100000000     0.580300000000     0.207800000000     0.0447328  
H        H      0.740500000000     0.743900000000     0.292800000000     0.0447328  
H        H      0.637600000000     0.251600000000     0.287800000000     0.0447328  
H        H      0.413800000000     0.699600000000     0.308100000000     0.0447328  
H        H      0.689000000000     0.962800000000     0.907900000000     0.0447328  
H        H      0.533100000000     0.836100000000     0.892100000000     0.0447328  
C        C      0.648700000000     0.190100000000     0.521500000000    -0.0445146  
C        C      0.466400000000     0.017400000000     0.638200000000    -0.0445146  
C        C      0.653800000000     0.874000000000     0.529600000000    -0.0445146  
C        C      0.480900000000     0.515700000000     0.626400000000    -0.0445146  
C        C      0.634100000000     0.670100000000     0.763700000000    -0.0445146  
C        C      0.809900000000     0.351300000000     0.978500000000    -0.0445146  
C        C      0.982600000000     0.533600000000     0.861800000000    -0.0445146  
C        C      0.126000000000     0.346200000000     0.970400000000    -0.0445146  
C        C      0.484300000000     0.519100000000     0.873600000000    -0.0445146  
C        C      0.329900000000     0.365900000000     0.736300000000    -0.0445146  
C        C      0.351300000000     0.809900000000     0.478500000000    -0.0445146  
C        C      0.533600000000     0.982600000000     0.361800000000    -0.0445146  
C        C      0.346200000000     0.126000000000     0.470400000000    -0.0445146  
C        C      0.519100000000     0.484300000000     0.373600000000    -0.0445146  
C        C      0.365900000000     0.329900000000     0.236300000000    -0.0445146  
C        C      0.190100000000     0.648700000000     0.021500000000    -0.0445146  
C        C      0.017400000000     0.466400000000     0.138200000000    -0.0445146  
C        C      0.874000000000     0.653800000000     0.029600000000    -0.0445146  
C        C      0.515700000000     0.480900000000     0.126400000000    -0.0445146  
C        C      0.670100000000     0.634100000000     0.263700000000    -0.0445146  
C        C      0.357100000000     0.642900000000     0.750000000000    -0.0445146  
C        C      0.607400000000     0.392600000000     0.750000000000    -0.0445146  
C        C      0.642900000000     0.357100000000     0.250000000000    -0.0445146  
C        C      0.392600000000     0.607400000000     0.250000000000    -0.0445146  
N        N      0.733800000000     0.309400000000     0.533900000000    -0.180084   
N        N      0.447200000000     0.030400000000     0.720900000000    -0.180084   
N        N      0.738700000000     0.791300000000     0.549500000000    -0.180084   
N        N      0.623700000000     0.531300000000     0.693600000000    -0.180084   
N        N      0.340500000000     0.503100000000     0.680200000000    -0.180084   
N        N      0.690600000000     0.266200000000     0.966100000000    -0.180084   
N        N      0.969600000000     0.552800000000     0.779100000000    -0.180084   
N        N      0.208700000000     0.261300000000     0.950500000000    -0.180084   
N        N      0.468700000000     0.376300000000     0.806400000000    -0.180084   
N        N      0.496900000000     0.659500000000     0.819800000000    -0.180084   
N        N      0.266200000000     0.690600000000     0.466100000000    -0.180084   
N        N      0.552800000000     0.969600000000     0.279100000000    -0.180084   
N        N      0.261300000000     0.208700000000     0.450500000000    -0.180084   
N        N      0.376300000000     0.468700000000     0.306400000000    -0.180084   
N        N      0.659500000000     0.496900000000     0.319800000000    -0.180084   
N        N      0.309400000000     0.733800000000     0.033900000000    -0.180084   
N        N      0.030400000000     0.447200000000     0.220900000000    -0.180084   
N        N      0.791300000000     0.738700000000     0.049500000000    -0.180084   
N        N      0.531300000000     0.623700000000     0.193600000000    -0.180084   
N        N      0.503100000000     0.340500000000     0.180200000000    -0.180084   
O        O      0.928100000000     0.582900000000     0.430000000000    -0.612972   
O        O      0.417100000000     0.071900000000     0.070000000000    -0.612972   
O        O      0.071900000000     0.417100000000     0.570000000000    -0.612972   
O        O      0.582900000000     0.928100000000     0.930000000000    -0.612972   


