data_GERNOI_original

_audit_creation_method RASPA-1.0
_audit_creation_date 2022-1-28
_audit_author_name 'Felipe Lopes de Oliveira <felipe.lopes.oliveira@ibm.com>'

_cell_length_a    11.392
_cell_length_b    18.743
_cell_length_c    24.386
_cell_angle_alpha 90
_cell_angle_beta  90
_cell_angle_gamma 90
_cell_volume      5206.9

_symmetry_cell_setting          triclinic
_symmetry_space_group_name_Hall 'P 1'
_symmetry_space_group_name_H-M  'P 1'
_symmetry_Int_Tables_number     1

_symmetry_equiv_pos_as_xyz 'x,y,z'

loop_
_atom_site_label
_atom_site_type_symbol
_atom_site_fract_x
_atom_site_fract_y
_atom_site_fract_z
_atom_site_charge
Zn       Zn     0.533230000000     0.299070000000     0.517980000000     0.427791   
Zn       Zn     0.533230000000     0.700930000000     0.482020000000     0.427791   
Zn       Zn     0.466770000000     0.200930000000     0.017980000000     0.427791   
Zn       Zn     0.466770000000     0.799070000000     0.982020000000     0.427791   
Zn       Zn     0.537910000000     0.500000000000     0.500000000000     0.427791   
Zn       Zn     0.462090000000     0.000000000000     0.000000000000     0.427791   
H        H      0.574700000000     0.474500000000     0.644900000000     0.0936624  
H        H      0.367900000000     0.405200000000     0.682200000000     0.0936624  
H        H      0.405100000000     0.484900000000     0.695200000000     0.0936624  
H        H      0.365300000000     0.463500000000     0.635200000000     0.0936624  
H        H      0.906700000000     0.390200000000     0.756400000000     0.0936624  
H        H      0.871000000000     0.216300000000     0.853700000000     0.0936624  
H        H      0.605800000000     0.277000000000     0.753400000000     0.0936624  
H        H      0.238400000000     0.463200000000     0.774900000000     0.0936624  
H        H      0.178900000000     0.472200000000     0.833200000000     0.0936624  
H        H      0.316500000000     0.461500000000     0.828600000000     0.0936624  
H        H      0.235700000000     0.352200000000     0.855400000000     0.0936624  
H        H      0.307600000000     0.191700000000     0.843400000000     0.0936624  
H        H      0.330100000000     0.146900000000     0.789300000000     0.0936624  
H        H      0.284100000000     0.108400000000     0.843000000000     0.0936624  
H        H      0.486900000000     0.087200000000     0.830800000000     0.0936624  
H        H      0.124300000000     0.240100000000     0.450400000000     0.0936624  
H        H      0.323700000000     0.251900000000     0.449400000000     0.0936624  
H        H      0.323500000000     0.342500000000     0.592600000000     0.0936624  
H        H      0.118600000000     0.340800000000     0.596100000000     0.0936624  
H        H      0.944800000000     0.268200000000     0.599900000000     0.0936624  
H        H      0.739700000000     0.271700000000     0.598500000000     0.0936624  
H        H      0.747500000000     0.329100000000     0.443800000000     0.0936624  
H        H      0.946200000000     0.318600000000     0.439600000000     0.0936624  
H        H      0.493800000000     0.167000000000     0.587100000000     0.0936624  
H        H      0.503000000000     0.045400000000     0.581500000000     0.0936624  
H        H      0.593900000000     0.063600000000     0.424700000000     0.0936624  
H        H      0.588100000000     0.185700000000     0.435700000000     0.0936624  
H        H      0.745800000000     0.480900000000     0.578500000000     0.0936624  
H        H      0.944300000000     0.484600000000     0.581500000000     0.0936624  
H        H      0.128200000000     0.558500000000     0.568400000000     0.0936624  
H        H      0.328500000000     0.557600000000     0.567100000000     0.0936624  
H        H      0.545500000000     0.377800000000     0.725400000000     0.0936624  
H        H      0.081900000000     0.362300000000     0.767400000000     0.0936624  
H        H      0.506300000000     0.228100000000     0.814300000000     0.0936624  
H        H      0.574700000000     0.525500000000     0.355100000000     0.0936624  
H        H      0.367900000000     0.594800000000     0.317800000000     0.0936624  
H        H      0.405100000000     0.515100000000     0.304800000000     0.0936624  
H        H      0.365300000000     0.536500000000     0.364800000000     0.0936624  
H        H      0.906700000000     0.609800000000     0.243600000000     0.0936624  
H        H      0.871000000000     0.783700000000     0.146300000000     0.0936624  
H        H      0.605800000000     0.723000000000     0.246600000000     0.0936624  
H        H      0.238400000000     0.536800000000     0.225100000000     0.0936624  
H        H      0.178900000000     0.527800000000     0.166800000000     0.0936624  
H        H      0.316500000000     0.538500000000     0.171400000000     0.0936624  
H        H      0.235700000000     0.647800000000     0.144600000000     0.0936624  
H        H      0.307600000000     0.808300000000     0.156600000000     0.0936624  
H        H      0.330100000000     0.853100000000     0.210700000000     0.0936624  
H        H      0.284100000000     0.891600000000     0.157000000000     0.0936624  
H        H      0.486900000000     0.912800000000     0.169200000000     0.0936624  
H        H      0.124300000000     0.759900000000     0.549600000000     0.0936624  
H        H      0.323700000000     0.748100000000     0.550600000000     0.0936624  
H        H      0.323500000000     0.657500000000     0.407400000000     0.0936624  
H        H      0.118600000000     0.659200000000     0.403900000000     0.0936624  
H        H      0.944800000000     0.731800000000     0.400100000000     0.0936624  
H        H      0.739700000000     0.728300000000     0.401500000000     0.0936624  
H        H      0.747500000000     0.670900000000     0.556200000000     0.0936624  
H        H      0.946200000000     0.681400000000     0.560400000000     0.0936624  
H        H      0.493800000000     0.833000000000     0.412900000000     0.0936624  
H        H      0.503000000000     0.954600000000     0.418500000000     0.0936624  
H        H      0.593900000000     0.936400000000     0.575300000000     0.0936624  
H        H      0.588100000000     0.814300000000     0.564300000000     0.0936624  
H        H      0.745800000000     0.519100000000     0.421500000000     0.0936624  
H        H      0.944300000000     0.515400000000     0.418500000000     0.0936624  
H        H      0.128200000000     0.441500000000     0.431600000000     0.0936624  
H        H      0.328500000000     0.442400000000     0.432900000000     0.0936624  
H        H      0.545500000000     0.622200000000     0.274600000000     0.0936624  
H        H      0.081900000000     0.637700000000     0.232600000000     0.0936624  
H        H      0.506300000000     0.771900000000     0.185700000000     0.0936624  
H        H      0.425300000000     0.025500000000     0.144900000000     0.0936624  
H        H      0.632100000000     0.094800000000     0.182200000000     0.0936624  
H        H      0.594900000000     0.015100000000     0.195200000000     0.0936624  
H        H      0.634700000000     0.036500000000     0.135200000000     0.0936624  
H        H      0.093300000000     0.109800000000     0.256400000000     0.0936624  
H        H      0.129000000000     0.283700000000     0.353700000000     0.0936624  
H        H      0.394200000000     0.223000000000     0.253400000000     0.0936624  
H        H      0.761600000000     0.036800000000     0.274900000000     0.0936624  
H        H      0.821100000000     0.027800000000     0.333200000000     0.0936624  
H        H      0.683500000000     0.038500000000     0.328600000000     0.0936624  
H        H      0.764300000000     0.147800000000     0.355400000000     0.0936624  
H        H      0.692400000000     0.308300000000     0.343400000000     0.0936624  
H        H      0.669900000000     0.353100000000     0.289300000000     0.0936624  
H        H      0.715900000000     0.391600000000     0.343000000000     0.0936624  
H        H      0.513100000000     0.412800000000     0.330800000000     0.0936624  
H        H      0.875700000000     0.259900000000     0.950400000000     0.0936624  
H        H      0.676300000000     0.248100000000     0.949400000000     0.0936624  
H        H      0.676500000000     0.157500000000     0.092600000000     0.0936624  
H        H      0.881400000000     0.159200000000     0.096100000000     0.0936624  
H        H      0.055200000000     0.231800000000     0.099900000000     0.0936624  
H        H      0.260300000000     0.228300000000     0.098500000000     0.0936624  
H        H      0.252500000000     0.170900000000     0.943800000000     0.0936624  
H        H      0.053800000000     0.181400000000     0.939600000000     0.0936624  
H        H      0.506200000000     0.333000000000     0.087100000000     0.0936624  
H        H      0.497000000000     0.454600000000     0.081500000000     0.0936624  
H        H      0.406100000000     0.436400000000     0.924700000000     0.0936624  
H        H      0.411900000000     0.314300000000     0.935700000000     0.0936624  
H        H      0.254200000000     0.019100000000     0.078500000000     0.0936624  
H        H      0.055700000000     0.015400000000     0.081500000000     0.0936624  
H        H      0.871800000000     0.941500000000     0.068400000000     0.0936624  
H        H      0.671500000000     0.942400000000     0.067100000000     0.0936624  
H        H      0.454500000000     0.122200000000     0.225400000000     0.0936624  
H        H      0.918100000000     0.137700000000     0.267400000000     0.0936624  
H        H      0.493700000000     0.271900000000     0.314300000000     0.0936624  
H        H      0.425300000000     0.974500000000     0.855100000000     0.0936624  
H        H      0.632100000000     0.905200000000     0.817800000000     0.0936624  
H        H      0.594900000000     0.984900000000     0.804800000000     0.0936624  
H        H      0.634700000000     0.963500000000     0.864800000000     0.0936624  
H        H      0.093300000000     0.890200000000     0.743600000000     0.0936624  
H        H      0.129000000000     0.716300000000     0.646300000000     0.0936624  
H        H      0.394200000000     0.777000000000     0.746600000000     0.0936624  
H        H      0.761600000000     0.963200000000     0.725100000000     0.0936624  
H        H      0.821100000000     0.972200000000     0.666800000000     0.0936624  
H        H      0.683500000000     0.961500000000     0.671400000000     0.0936624  
H        H      0.764300000000     0.852200000000     0.644600000000     0.0936624  
H        H      0.692400000000     0.691700000000     0.656600000000     0.0936624  
H        H      0.669900000000     0.646900000000     0.710700000000     0.0936624  
H        H      0.715900000000     0.608400000000     0.657000000000     0.0936624  
H        H      0.513100000000     0.587200000000     0.669200000000     0.0936624  
H        H      0.875700000000     0.740100000000     0.049600000000     0.0936624  
H        H      0.676300000000     0.751900000000     0.050600000000     0.0936624  
H        H      0.676500000000     0.842500000000     0.907400000000     0.0936624  
H        H      0.881400000000     0.840800000000     0.903900000000     0.0936624  
H        H      0.055200000000     0.768200000000     0.900100000000     0.0936624  
H        H      0.260300000000     0.771700000000     0.901500000000     0.0936624  
H        H      0.252500000000     0.829100000000     0.056200000000     0.0936624  
H        H      0.053800000000     0.818600000000     0.060400000000     0.0936624  
H        H      0.506200000000     0.667000000000     0.912900000000     0.0936624  
H        H      0.497000000000     0.545400000000     0.918500000000     0.0936624  
H        H      0.406100000000     0.563600000000     0.075300000000     0.0936624  
H        H      0.411900000000     0.685700000000     0.064300000000     0.0936624  
H        H      0.254200000000     0.980900000000     0.921500000000     0.0936624  
H        H      0.055700000000     0.984600000000     0.918500000000     0.0936624  
H        H      0.871800000000     0.058500000000     0.931600000000     0.0936624  
H        H      0.671500000000     0.057600000000     0.932900000000     0.0936624  
H        H      0.454500000000     0.877800000000     0.774600000000     0.0936624  
H        H      0.918100000000     0.862300000000     0.732600000000     0.0936624  
H        H      0.493700000000     0.728100000000     0.685700000000     0.0936624  
C        C      0.535000000000     0.381300000000     0.603000000000    -0.00425175 
C        C      0.532100000000     0.429800000000     0.653300000000    -0.00425175 
C        C      0.406300000000     0.447400000000     0.667800000000    -0.00425175 
C        C      0.706000000000     0.386300000000     0.702400000000    -0.00425175 
C        C      0.750700000000     0.339600000000     0.746900000000    -0.00425175 
C        C      0.861900000000     0.351100000000     0.768500000000    -0.00425175 
C        C      0.906700000000     0.305800000000     0.807300000000    -0.00425175 
C        C      0.839800000000     0.247700000000     0.827400000000    -0.00425175 
C        C      0.727100000000     0.238400000000     0.807300000000    -0.00425175 
C        C      0.682200000000     0.283900000000     0.767000000000    -0.00425175 
C        C      0.028800000000     0.317400000000     0.831600000000    -0.00425175 
C        C      0.241200000000     0.448500000000     0.813000000000    -0.00425175 
C        C      0.224700000000     0.367000000000     0.816700000000    -0.00425175 
C        C      0.317800000000     0.329900000000     0.781500000000    -0.00425175 
C        C      0.653300000000     0.180100000000     0.830200000000    -0.00425175 
C        C      0.334000000000     0.146200000000     0.829100000000    -0.00425175 
C        C      0.460300000000     0.132900000000     0.847000000000    -0.00425175 
C        C      0.463700000000     0.125800000000     0.909600000000    -0.00425175 
C        C      0.162300000000     0.263600000000     0.479500000000    -0.00425175 
C        C      0.282400000000     0.268600000000     0.480100000000    -0.00425175 
C        C      0.282300000000     0.322200000000     0.563000000000    -0.00425175 
C        C      0.158600000000     0.322000000000     0.565700000000    -0.00425175 
C        C      0.097700000000     0.292600000000     0.521100000000    -0.00425175 
C        C      0.967900000000     0.294400000000     0.522200000000    -0.00425175 
C        C      0.905700000000     0.280100000000     0.567200000000    -0.00425175 
C        C      0.781800000000     0.282600000000     0.566400000000    -0.00425175 
C        C      0.787900000000     0.314900000000     0.475600000000    -0.00425175 
C        C      0.906100000000     0.310900000000     0.472700000000    -0.00425175 
C        C      0.515100000000     0.146100000000     0.553500000000    -0.00425175 
C        C      0.519900000000     0.072700000000     0.550200000000    -0.00425175 
C        C      0.548600000000     0.038900000000     0.502700000000    -0.00425175 
C        C      0.573700000000     0.083100000000     0.458900000000    -0.00425175 
C        C      0.568800000000     0.156600000000     0.465700000000    -0.00425175 
C        C      0.787300000000     0.489400000000     0.545800000000    -0.00425175 
C        C      0.906000000000     0.490400000000     0.547700000000    -0.00425175 
C        C      0.167400000000     0.534200000000     0.540000000000    -0.00425175 
C        C      0.287800000000     0.533500000000     0.539100000000    -0.00425175 
C        C      0.535000000000     0.618700000000     0.397000000000    -0.00425175 
C        C      0.532100000000     0.570200000000     0.346700000000    -0.00425175 
C        C      0.406300000000     0.552600000000     0.332200000000    -0.00425175 
C        C      0.706000000000     0.613700000000     0.297600000000    -0.00425175 
C        C      0.750700000000     0.660400000000     0.253100000000    -0.00425175 
C        C      0.861900000000     0.648900000000     0.231500000000    -0.00425175 
C        C      0.906700000000     0.694200000000     0.192700000000    -0.00425175 
C        C      0.839800000000     0.752300000000     0.172600000000    -0.00425175 
C        C      0.727100000000     0.761600000000     0.192700000000    -0.00425175 
C        C      0.682200000000     0.716100000000     0.233000000000    -0.00425175 
C        C      0.028800000000     0.682600000000     0.168400000000    -0.00425175 
C        C      0.241200000000     0.551500000000     0.187000000000    -0.00425175 
C        C      0.224700000000     0.633000000000     0.183300000000    -0.00425175 
C        C      0.317800000000     0.670100000000     0.218500000000    -0.00425175 
C        C      0.653300000000     0.819900000000     0.169800000000    -0.00425175 
C        C      0.334000000000     0.853800000000     0.170900000000    -0.00425175 
C        C      0.460300000000     0.867100000000     0.153000000000    -0.00425175 
C        C      0.463700000000     0.874200000000     0.090400000000    -0.00425175 
C        C      0.162300000000     0.736400000000     0.520500000000    -0.00425175 
C        C      0.282400000000     0.731400000000     0.519900000000    -0.00425175 
C        C      0.282300000000     0.677800000000     0.437000000000    -0.00425175 
C        C      0.158600000000     0.678000000000     0.434300000000    -0.00425175 
C        C      0.097700000000     0.707400000000     0.478900000000    -0.00425175 
C        C      0.967900000000     0.705600000000     0.477800000000    -0.00425175 
C        C      0.905700000000     0.719900000000     0.432800000000    -0.00425175 
C        C      0.781800000000     0.717400000000     0.433600000000    -0.00425175 
C        C      0.787900000000     0.685100000000     0.524400000000    -0.00425175 
C        C      0.906100000000     0.689100000000     0.527300000000    -0.00425175 
C        C      0.515100000000     0.853900000000     0.446500000000    -0.00425175 
C        C      0.519900000000     0.927300000000     0.449800000000    -0.00425175 
C        C      0.548600000000     0.961100000000     0.497300000000    -0.00425175 
C        C      0.573700000000     0.916900000000     0.541100000000    -0.00425175 
C        C      0.568800000000     0.843400000000     0.534300000000    -0.00425175 
C        C      0.787300000000     0.510600000000     0.454200000000    -0.00425175 
C        C      0.906000000000     0.509600000000     0.452300000000    -0.00425175 
C        C      0.167400000000     0.465800000000     0.460000000000    -0.00425175 
C        C      0.287800000000     0.466500000000     0.460900000000    -0.00425175 
C        C      0.465000000000     0.118700000000     0.103000000000    -0.00425175 
C        C      0.467900000000     0.070200000000     0.153300000000    -0.00425175 
C        C      0.593700000000     0.052600000000     0.167800000000    -0.00425175 
C        C      0.294000000000     0.113700000000     0.202400000000    -0.00425175 
C        C      0.249300000000     0.160400000000     0.246900000000    -0.00425175 
C        C      0.138100000000     0.148900000000     0.268500000000    -0.00425175 
C        C      0.093300000000     0.194200000000     0.307300000000    -0.00425175 
C        C      0.160200000000     0.252300000000     0.327400000000    -0.00425175 
C        C      0.272900000000     0.261600000000     0.307300000000    -0.00425175 
C        C      0.317800000000     0.216100000000     0.267000000000    -0.00425175 
C        C      0.971200000000     0.182600000000     0.331600000000    -0.00425175 
C        C      0.758800000000     0.051500000000     0.313000000000    -0.00425175 
C        C      0.775300000000     0.133000000000     0.316700000000    -0.00425175 
C        C      0.682200000000     0.170100000000     0.281500000000    -0.00425175 
C        C      0.346700000000     0.319900000000     0.330200000000    -0.00425175 
C        C      0.666000000000     0.353800000000     0.329100000000    -0.00425175 
C        C      0.539700000000     0.367100000000     0.347000000000    -0.00425175 
C        C      0.536300000000     0.374200000000     0.409600000000    -0.00425175 
C        C      0.837700000000     0.236400000000     0.979500000000    -0.00425175 
C        C      0.717600000000     0.231400000000     0.980100000000    -0.00425175 
C        C      0.717700000000     0.177800000000     0.063000000000    -0.00425175 
C        C      0.841400000000     0.178000000000     0.065700000000    -0.00425175 
C        C      0.902300000000     0.207400000000     0.021100000000    -0.00425175 
C        C      0.032100000000     0.205600000000     0.022200000000    -0.00425175 
C        C      0.094300000000     0.219900000000     0.067200000000    -0.00425175 
C        C      0.218200000000     0.217400000000     0.066400000000    -0.00425175 
C        C      0.212100000000     0.185100000000     0.975600000000    -0.00425175 
C        C      0.093900000000     0.189100000000     0.972700000000    -0.00425175 
C        C      0.484900000000     0.353900000000     0.053500000000    -0.00425175 
C        C      0.480100000000     0.427300000000     0.050200000000    -0.00425175 
C        C      0.451400000000     0.461100000000     0.002700000000    -0.00425175 
C        C      0.426300000000     0.416900000000     0.958900000000    -0.00425175 
C        C      0.431200000000     0.343400000000     0.965700000000    -0.00425175 
C        C      0.212700000000     0.010600000000     0.045800000000    -0.00425175 
C        C      0.094000000000     0.009600000000     0.047700000000    -0.00425175 
C        C      0.832600000000     0.965800000000     0.040000000000    -0.00425175 
C        C      0.712200000000     0.966500000000     0.039100000000    -0.00425175 
C        C      0.465000000000     0.881300000000     0.897000000000    -0.00425175 
C        C      0.467900000000     0.929800000000     0.846700000000    -0.00425175 
C        C      0.593700000000     0.947400000000     0.832200000000    -0.00425175 
C        C      0.294000000000     0.886300000000     0.797600000000    -0.00425175 
C        C      0.249300000000     0.839600000000     0.753100000000    -0.00425175 
C        C      0.138100000000     0.851100000000     0.731500000000    -0.00425175 
C        C      0.093300000000     0.805800000000     0.692700000000    -0.00425175 
C        C      0.160200000000     0.747700000000     0.672600000000    -0.00425175 
C        C      0.272900000000     0.738400000000     0.692700000000    -0.00425175 
C        C      0.317800000000     0.783900000000     0.733000000000    -0.00425175 
C        C      0.971200000000     0.817400000000     0.668400000000    -0.00425175 
C        C      0.758800000000     0.948500000000     0.687000000000    -0.00425175 
C        C      0.775300000000     0.867000000000     0.683300000000    -0.00425175 
C        C      0.682200000000     0.829900000000     0.718500000000    -0.00425175 
C        C      0.346700000000     0.680100000000     0.669800000000    -0.00425175 
C        C      0.666000000000     0.646200000000     0.670900000000    -0.00425175 
C        C      0.539700000000     0.632900000000     0.653000000000    -0.00425175 
C        C      0.536300000000     0.625800000000     0.590400000000    -0.00425175 
C        C      0.837700000000     0.763600000000     0.020500000000    -0.00425175 
C        C      0.717600000000     0.768600000000     0.019900000000    -0.00425175 
C        C      0.717700000000     0.822200000000     0.937000000000    -0.00425175 
C        C      0.841400000000     0.822000000000     0.934300000000    -0.00425175 
C        C      0.902300000000     0.792600000000     0.978900000000    -0.00425175 
C        C      0.032100000000     0.794400000000     0.977800000000    -0.00425175 
C        C      0.094300000000     0.780100000000     0.932800000000    -0.00425175 
C        C      0.218200000000     0.782600000000     0.933600000000    -0.00425175 
C        C      0.212100000000     0.814900000000     0.024400000000    -0.00425175 
C        C      0.093900000000     0.810900000000     0.027300000000    -0.00425175 
C        C      0.484900000000     0.646100000000     0.946500000000    -0.00425175 
C        C      0.480100000000     0.572700000000     0.949800000000    -0.00425175 
C        C      0.451400000000     0.538900000000     0.997300000000    -0.00425175 
C        C      0.426300000000     0.583100000000     0.041100000000    -0.00425175 
C        C      0.431200000000     0.656600000000     0.034300000000    -0.00425175 
C        C      0.212700000000     0.989400000000     0.954200000000    -0.00425175 
C        C      0.094000000000     0.990400000000     0.952300000000    -0.00425175 
C        C      0.832600000000     0.034200000000     0.960000000000    -0.00425175 
C        C      0.712200000000     0.033500000000     0.960900000000    -0.00425175 
C        C      0.972300000000     0.500000000000     0.500000000000    -0.00425175 
C        C      0.102400000000     0.500000000000     0.500000000000    -0.00425175 
C        C      0.027700000000     0.000000000000     0.000000000000    -0.00425175 
C        C      0.897600000000     0.000000000000     0.000000000000    -0.00425175 
N        N      0.589000000000     0.394500000000     0.699000000000    -0.194546   
N        N      0.104300000000     0.349900000000     0.800200000000    -0.194546   
N        N      0.535900000000     0.189000000000     0.827600000000    -0.194546   
N        N      0.344500000000     0.295800000000     0.521800000000    -0.194546   
N        N      0.722900000000     0.300100000000     0.520600000000    -0.194546   
N        N      0.538500000000     0.187800000000     0.512200000000    -0.194546   
N        N      0.589000000000     0.605500000000     0.301000000000    -0.194546   
N        N      0.104300000000     0.650100000000     0.199800000000    -0.194546   
N        N      0.535900000000     0.811000000000     0.172400000000    -0.194546   
N        N      0.344500000000     0.704200000000     0.478200000000    -0.194546   
N        N      0.722900000000     0.699900000000     0.479400000000    -0.194546   
N        N      0.538500000000     0.812200000000     0.487800000000    -0.194546   
N        N      0.411000000000     0.105500000000     0.199000000000    -0.194546   
N        N      0.895700000000     0.150100000000     0.300200000000    -0.194546   
N        N      0.464100000000     0.311000000000     0.327600000000    -0.194546   
N        N      0.655500000000     0.204200000000     0.021800000000    -0.194546   
N        N      0.277100000000     0.199900000000     0.020600000000    -0.194546   
N        N      0.461500000000     0.312200000000     0.012200000000    -0.194546   
N        N      0.411000000000     0.894500000000     0.801000000000    -0.194546   
N        N      0.895700000000     0.849900000000     0.699800000000    -0.194546   
N        N      0.464100000000     0.689000000000     0.672400000000    -0.194546   
N        N      0.655500000000     0.795800000000     0.978200000000    -0.194546   
N        N      0.277100000000     0.800100000000     0.979400000000    -0.194546   
N        N      0.461500000000     0.687800000000     0.987800000000    -0.194546   
N        N      0.727000000000     0.500000000000     0.500000000000    -0.194546   
N        N      0.350400000000     0.500000000000     0.500000000000    -0.194546   
N        N      0.273000000000     0.000000000000     0.000000000000    -0.194546   
N        N      0.649600000000     0.000000000000     0.000000000000    -0.194546   
O        O      0.533000000000     0.408300000000     0.554560000000    -0.255869   
O        O      0.536300000000     0.314600000000     0.607770000000    -0.255869   
O        O      0.773000000000     0.414200000000     0.668600000000    -0.255869   
O        O      0.283900000000     0.294500000000     0.740500000000    -0.255869   
O        O      0.421700000000     0.335000000000     0.795700000000    -0.255869   
O        O      0.052100000000     0.296700000000     0.877500000000    -0.255869   
O        O      0.474900000000     0.182000000000     0.936630000000    -0.255869   
O        O      0.454000000000     0.064100000000     0.929580000000    -0.255869   
O        O      0.696900000000     0.126600000000     0.851600000000    -0.255869   
O        O      0.533000000000     0.591700000000     0.445440000000    -0.255869   
O        O      0.536300000000     0.685400000000     0.392230000000    -0.255869   
O        O      0.773000000000     0.585800000000     0.331400000000    -0.255869   
O        O      0.283900000000     0.705500000000     0.259500000000    -0.255869   
O        O      0.421700000000     0.665000000000     0.204300000000    -0.255869   
O        O      0.052100000000     0.703300000000     0.122500000000    -0.255869   
O        O      0.474900000000     0.818000000000     0.063370000000    -0.255869   
O        O      0.454000000000     0.935900000000     0.070420000000    -0.255869   
O        O      0.696900000000     0.873400000000     0.148400000000    -0.255869   
O        O      0.467000000000     0.091700000000     0.054560000000    -0.255869   
O        O      0.463700000000     0.185400000000     0.107770000000    -0.255869   
O        O      0.227000000000     0.085800000000     0.168600000000    -0.255869   
O        O      0.716100000000     0.205500000000     0.240500000000    -0.255869   
O        O      0.578300000000     0.165000000000     0.295700000000    -0.255869   
O        O      0.947900000000     0.203300000000     0.377500000000    -0.255869   
O        O      0.525100000000     0.318000000000     0.436630000000    -0.255869   
O        O      0.546000000000     0.435900000000     0.429580000000    -0.255869   
O        O      0.303100000000     0.373400000000     0.351600000000    -0.255869   
O        O      0.467000000000     0.908300000000     0.945440000000    -0.255869   
O        O      0.463700000000     0.814600000000     0.892230000000    -0.255869   
O        O      0.227000000000     0.914200000000     0.831400000000    -0.255869   
O        O      0.716100000000     0.794500000000     0.759500000000    -0.255869   
O        O      0.578300000000     0.835000000000     0.704300000000    -0.255869   
O        O      0.947900000000     0.796700000000     0.622500000000    -0.255869   
O        O      0.525100000000     0.682000000000     0.563370000000    -0.255869   
O        O      0.546000000000     0.564100000000     0.570420000000    -0.255869   
O        O      0.303100000000     0.626600000000     0.648400000000    -0.255869   


