data_GIHBII_original

_audit_creation_method RASPA-1.0
_audit_creation_date 2022-1-28
_audit_author_name 'Felipe Lopes de Oliveira <felipe.lopes.oliveira@ibm.com>'

_cell_length_a    8.669
_cell_length_b    9.097
_cell_length_c    17.932
_cell_angle_alpha 90
_cell_angle_beta  90
_cell_angle_gamma 108.32
_cell_volume      1342.48

_symmetry_cell_setting          triclinic
_symmetry_space_group_name_Hall 'P 1'
_symmetry_space_group_name_H-M  'P 1'
_symmetry_Int_Tables_number     1

_symmetry_equiv_pos_as_xyz 'x,y,z'

loop_
_atom_site_label
_atom_site_type_symbol
_atom_site_fract_x
_atom_site_fract_y
_atom_site_fract_z
_atom_site_charge
Ga       Ga     0.867300000000     0.334000000000     0.391800000000     4.68911    
Ga       Ga     0.930800000000     0.200700000000     0.206200000000     4.68911    
Ga       Ga     0.487000000000     0.301000000000     0.174300000000     4.68911    
Ga       Ga     0.632700000000     0.166000000000     0.891800000000     4.68911    
Ga       Ga     0.569200000000     0.299300000000     0.706200000000     4.68911    
Ga       Ga     0.013000000000     0.199000000000     0.674300000000     4.68911    
Ga       Ga     0.132700000000     0.666000000000     0.608200000000     4.68911    
Ga       Ga     0.069200000000     0.799300000000     0.793800000000     4.68911    
Ga       Ga     0.513000000000     0.699000000000     0.825700000000     4.68911    
Ga       Ga     0.367300000000     0.834000000000     0.108200000000     4.68911    
Ga       Ga     0.430800000000     0.700700000000     0.293800000000     4.68911    
Ga       Ga     0.987000000000     0.801000000000     0.325700000000     4.68911    
P        P      0.660500000000     0.128200000000     0.070200000000     1.19422    
P        P      0.701700000000     0.517700000000     0.287400000000     1.19422    
P        P      0.746100000000     0.993000000000     0.336000000000     1.19422    
P        P      0.839500000000     0.371800000000     0.570200000000     1.19422    
P        P      0.798300000000     0.982300000000     0.787400000000     1.19422    
P        P      0.753900000000     0.507000000000     0.836000000000     1.19422    
P        P      0.339500000000     0.871800000000     0.929800000000     1.19422    
P        P      0.298300000000     0.482300000000     0.712600000000     1.19422    
P        P      0.253900000000     0.007000000000     0.664000000000     1.19422    
P        P      0.160500000000     0.628200000000     0.429800000000     1.19422    
P        P      0.201700000000     0.017700000000     0.212600000000     1.19422    
P        P      0.246100000000     0.493000000000     0.164000000000     1.19422    
O        O      0.894200000000     0.943400000000     0.356400000000    -1.35769    
O        O      0.750900000000     0.125200000000     0.390400000000    -1.35769    
O        O      0.719600000000     0.167600000000     0.991500000000    -1.35769    
O        O      0.734300000000     0.445400000000     0.358900000000    -1.35769    
O        O      0.808700000000     0.178400000000     0.119700000000    -1.35769    
O        O      0.575900000000     0.953400000000     0.077700000000    -1.35769    
O        O      0.752300000000     0.046100000000     0.254700000000    -1.35769    
O        O      0.549900000000     0.562100000000     0.299600000000    -1.35769    
O        O      0.589100000000     0.862400000000     0.348800000000    -1.35769    
O        O      0.675100000000     0.401900000000     0.222100000000    -1.35769    
O        O      0.849200000000     0.656800000000     0.265600000000    -1.35769    
O        O      0.539200000000     0.214400000000     0.090500000000    -1.35769    
O        O      0.970200000000     0.320600000000     0.294400000000    -1.35769    
O        O      0.605800000000     0.556600000000     0.856400000000    -1.35769    
O        O      0.749100000000     0.374800000000     0.890400000000    -1.35769    
O        O      0.780400000000     0.332400000000     0.491500000000    -1.35769    
O        O      0.765700000000     0.054600000000     0.858900000000    -1.35769    
O        O      0.691300000000     0.321600000000     0.619700000000    -1.35769    
O        O      0.924100000000     0.546600000000     0.577700000000    -1.35769    
O        O      0.747700000000     0.453900000000     0.754700000000    -1.35769    
O        O      0.950100000000     0.937900000000     0.799600000000    -1.35769    
O        O      0.910900000000     0.637600000000     0.848800000000    -1.35769    
O        O      0.824900000000     0.098100000000     0.722100000000    -1.35769    
O        O      0.650800000000     0.843200000000     0.765600000000    -1.35769    
O        O      0.960800000000     0.285600000000     0.590500000000    -1.35769    
O        O      0.529800000000     0.179400000000     0.794400000000    -1.35769    
O        O      0.105800000000     0.056600000000     0.643600000000    -1.35769    
O        O      0.249100000000     0.874800000000     0.609600000000    -1.35769    
O        O      0.280400000000     0.832400000000     0.008500000000    -1.35769    
O        O      0.265700000000     0.554600000000     0.641100000000    -1.35769    
O        O      0.191300000000     0.821600000000     0.880300000000    -1.35769    
O        O      0.424100000000     0.046600000000     0.922300000000    -1.35769    
O        O      0.247700000000     0.953900000000     0.745300000000    -1.35769    
O        O      0.450100000000     0.437900000000     0.700400000000    -1.35769    
O        O      0.410900000000     0.137600000000     0.651200000000    -1.35769    
O        O      0.324900000000     0.598100000000     0.777900000000    -1.35769    
O        O      0.150800000000     0.343200000000     0.734400000000    -1.35769    
O        O      0.460800000000     0.785600000000     0.909500000000    -1.35769    
O        O      0.029800000000     0.679400000000     0.705600000000    -1.35769    
O        O      0.394200000000     0.443400000000     0.143600000000    -1.35769    
O        O      0.250900000000     0.625200000000     0.109600000000    -1.35769    
O        O      0.219600000000     0.667600000000     0.508500000000    -1.35769    
O        O      0.234300000000     0.945400000000     0.141100000000    -1.35769    
O        O      0.308700000000     0.678400000000     0.380300000000    -1.35769    
O        O      0.075900000000     0.453400000000     0.422300000000    -1.35769    
O        O      0.252300000000     0.546100000000     0.245300000000    -1.35769    
O        O      0.049900000000     0.062100000000     0.200400000000    -1.35769    
O        O      0.089100000000     0.362400000000     0.151200000000    -1.35769    
O        O      0.175100000000     0.901900000000     0.277900000000    -1.35769    
O        O      0.349200000000     0.156800000000     0.234400000000    -1.35769    
O        O      0.039200000000     0.714400000000     0.409500000000    -1.35769    
O        O      0.470200000000     0.820600000000     0.205600000000    -1.35769    


