data_GINLIA_original

_audit_creation_method RASPA-1.0
_audit_creation_date 2022-1-30
_audit_author_name 'Felipe Lopes de Oliveira <felipe.lopes.oliveira@ibm.com>'

_cell_length_a    10.1889
_cell_length_b    16.651
_cell_length_c    19.73
_cell_angle_alpha 90
_cell_angle_beta  101.825
_cell_angle_gamma 90
_cell_volume      3276.26

_symmetry_cell_setting          triclinic
_symmetry_space_group_name_Hall 'P 1'
_symmetry_space_group_name_H-M  'P 1'
_symmetry_Int_Tables_number     1

_symmetry_equiv_pos_as_xyz 'x,y,z'

loop_
_atom_site_label
_atom_site_type_symbol
_atom_site_fract_x
_atom_site_fract_y
_atom_site_fract_z
_atom_site_charge
Zn       Zn     0.497940000000     0.341960000000     0.384550000000     0.468686   
Zn       Zn     0.757800000000     0.436160000000     0.500270000000     0.468686   
Zn       Zn     0.502060000000     0.841960000000     0.615450000000     0.468686   
Zn       Zn     0.242200000000     0.936160000000     0.499730000000     0.468686   
H        H      0.582500000000     0.069000000000     0.711600000000     0.097691   
H        H      0.692700000000     0.292600000000     0.666800000000     0.097691   
H        H      0.905900000000     0.227200000000     0.711500000000     0.097691   
H        H      0.181400000000     0.284700000000     0.883300000000     0.097691   
H        H      0.027200000000     0.279500000000     0.950100000000     0.097691   
H        H      0.371900000000     0.190900000000     0.879600000000     0.097691   
H        H      0.435500000000     0.102000000000     0.882600000000     0.097691   
H        H      0.429000000000     0.169900000000     0.010300000000     0.097691   
H        H      0.285400000000     0.146100000000     0.965000000000     0.097691   
H        H      0.398600000000     0.078900000000     0.986000000000     0.097691   
H        H      0.521100000000     0.165100000000     0.803200000000     0.097691   
H        H      0.777000000000     0.088400000000     0.970000000000     0.097691   
H        H      0.771100000000     0.981000000000     0.045900000000     0.097691   
H        H      0.897700000000     0.128700000000     0.209500000000     0.097691   
H        H      0.855000000000     0.376000000000     0.112200000000     0.097691   
H        H      0.963600000000     0.443500000000     0.013000000000     0.097691   
H        H      0.835400000000     0.479300000000     0.038200000000     0.097691   
H        H      0.754700000000     0.535200000000     0.936000000000     0.097691   
H        H      0.912500000000     0.551300000000     0.946900000000     0.097691   
H        H      0.845000000000     0.480100000000     0.897300000000     0.097691   
H        H      0.136600000000     0.275000000000     0.222700000000     0.097691   
H        H      0.026100000000     0.344400000000     0.401200000000     0.097691   
H        H      0.746400000000     0.281300000000     0.236500000000     0.097691   
H        H      0.417500000000     0.569000000000     0.288400000000     0.097691   
H        H      0.307300000000     0.792600000000     0.333200000000     0.097691   
H        H      0.094100000000     0.727200000000     0.288500000000     0.097691   
H        H      0.818600000000     0.784700000000     0.116700000000     0.097691   
H        H      0.972800000000     0.779500000000     0.049900000000     0.097691   
H        H      0.628100000000     0.690900000000     0.120400000000     0.097691   
H        H      0.564500000000     0.602000000000     0.117400000000     0.097691   
H        H      0.571000000000     0.669900000000     0.989700000000     0.097691   
H        H      0.714600000000     0.646100000000     0.035000000000     0.097691   
H        H      0.601400000000     0.578900000000     0.014000000000     0.097691   
H        H      0.478900000000     0.665100000000     0.196800000000     0.097691   
H        H      0.223000000000     0.588400000000     0.030000000000     0.097691   
H        H      0.228900000000     0.481000000000     0.954100000000     0.097691   
H        H      0.102300000000     0.628700000000     0.790500000000     0.097691   
H        H      0.145000000000     0.876000000000     0.887800000000     0.097691   
H        H      0.036400000000     0.943500000000     0.987000000000     0.097691   
H        H      0.164600000000     0.979300000000     0.961800000000     0.097691   
H        H      0.245300000000     0.035200000000     0.064000000000     0.097691   
H        H      0.087500000000     0.051300000000     0.053100000000     0.097691   
H        H      0.155000000000     0.980100000000     0.102700000000     0.097691   
H        H      0.863400000000     0.775000000000     0.777300000000     0.097691   
H        H      0.973900000000     0.844400000000     0.598800000000     0.097691   
H        H      0.253600000000     0.781300000000     0.763500000000     0.097691   
C        C      0.595700000000     0.290100000000     0.526800000000     0.00647998 
C        C      0.592300000000     0.227400000000     0.581000000000     0.00647998 
C        C      0.535400000000     0.151900000000     0.562700000000     0.00647998 
C        C      0.537200000000     0.094000000000     0.609900000000     0.00647998 
C        C      0.588700000000     0.109000000000     0.678000000000     0.00647998 
C        C      0.649900000000     0.181700000000     0.699000000000     0.00647998 
C        C      0.652500000000     0.242300000000     0.652400000000     0.00647998 
C        C      0.471400000000     0.015500000000     0.590300000000     0.00647998 
C        C      0.694700000000     0.199300000000     0.775600000000     0.00647998 
C        C      0.833700000000     0.225100000000     0.802600000000     0.00647998 
C        C      0.929600000000     0.235100000000     0.760100000000     0.00647998 
C        C      0.055200000000     0.256100000000     0.791200000000     0.00647998 
C        C      0.091600000000     0.270400000000     0.863200000000     0.00647998 
C        C      0.003300000000     0.264000000000     0.902800000000     0.00647998 
C        C      0.876900000000     0.235400000000     0.876800000000     0.00647998 
C        C      0.782400000000     0.222900000000     0.920600000000     0.00647998 
C        C      0.654900000000     0.194700000000     0.889200000000     0.00647998 
C        C      0.431000000000     0.151800000000     0.909300000000     0.00647998 
C        C      0.382000000000     0.135300000000     0.972900000000     0.00647998 
C        C      0.609900000000     0.183600000000     0.820500000000     0.00647998 
C        C      0.826000000000     0.230500000000     0.997500000000     0.00647998 
C        C      0.840900000000     0.172300000000     0.044700000000     0.00647998 
C        C      0.801500000000     0.096600000000     0.018600000000     0.00647998 
C        C      0.798000000000     0.032800000000     0.063700000000     0.00647998 
C        C      0.833900000000     0.044800000000     0.134800000000     0.00647998 
C        C      0.873200000000     0.120500000000     0.160900000000     0.00647998 
C        C      0.876700000000     0.184300000000     0.115800000000     0.00647998 
C        C      0.892000000000     0.260000000000     0.141700000000     0.00647998 
C        C      0.855300000000     0.322500000000     0.095600000000     0.00647998 
C        C      0.818000000000     0.307200000000     0.023300000000     0.00647998 
C        C      0.866000000000     0.454800000000     0.998600000000     0.00647998 
C        C      0.843000000000     0.509800000000     0.939900000000     0.00647998 
C        C      0.931300000000     0.281900000000     0.217600000000     0.00647998 
C        C      0.068800000000     0.287700000000     0.247600000000     0.00647998 
C        C      0.099400000000     0.314100000000     0.318600000000     0.00647998 
C        C      0.002300000000     0.326200000000     0.354700000000     0.00647998 
C        C      0.865400000000     0.312400000000     0.324600000000     0.00647998 
C        C      0.837600000000     0.290900000000     0.257600000000     0.00647998 
C        C      0.243900000000     0.330000000000     0.353700000000     0.00647998 
C        C      0.757100000000     0.331000000000     0.365200000000     0.00647998 
C        C      0.404300000000     0.790100000000     0.473200000000     0.00647998 
C        C      0.407700000000     0.727400000000     0.419000000000     0.00647998 
C        C      0.464600000000     0.651900000000     0.437300000000     0.00647998 
C        C      0.462800000000     0.594000000000     0.390100000000     0.00647998 
C        C      0.411300000000     0.609000000000     0.322000000000     0.00647998 
C        C      0.350100000000     0.681700000000     0.301000000000     0.00647998 
C        C      0.347500000000     0.742300000000     0.347600000000     0.00647998 
C        C      0.528600000000     0.515500000000     0.409700000000     0.00647998 
C        C      0.305300000000     0.699300000000     0.224400000000     0.00647998 
C        C      0.166300000000     0.725100000000     0.197400000000     0.00647998 
C        C      0.070400000000     0.735100000000     0.239900000000     0.00647998 
C        C      0.944800000000     0.756100000000     0.208800000000     0.00647998 
C        C      0.908400000000     0.770400000000     0.136800000000     0.00647998 
C        C      0.996700000000     0.764000000000     0.097200000000     0.00647998 
C        C      0.123100000000     0.735400000000     0.123200000000     0.00647998 
C        C      0.217600000000     0.722900000000     0.079400000000     0.00647998 
C        C      0.345100000000     0.694700000000     0.110800000000     0.00647998 
C        C      0.569000000000     0.651800000000     0.090700000000     0.00647998 
C        C      0.618000000000     0.635300000000     0.027100000000     0.00647998 
C        C      0.390100000000     0.683600000000     0.179500000000     0.00647998 
C        C      0.174000000000     0.730500000000     0.002500000000     0.00647998 
C        C      0.159100000000     0.672300000000     0.955300000000     0.00647998 
C        C      0.198500000000     0.596600000000     0.981400000000     0.00647998 
C        C      0.202000000000     0.532800000000     0.936300000000     0.00647998 
C        C      0.166100000000     0.544800000000     0.865200000000     0.00647998 
C        C      0.126800000000     0.620500000000     0.839100000000     0.00647998 
C        C      0.123300000000     0.684300000000     0.884200000000     0.00647998 
C        C      0.108000000000     0.760000000000     0.858300000000     0.00647998 
C        C      0.144700000000     0.822500000000     0.904400000000     0.00647998 
C        C      0.182000000000     0.807200000000     0.976700000000     0.00647998 
C        C      0.134000000000     0.954800000000     0.001400000000     0.00647998 
C        C      0.157000000000     0.009800000000     0.060100000000     0.00647998 
C        C      0.068700000000     0.781900000000     0.782400000000     0.00647998 
C        C      0.931200000000     0.787700000000     0.752400000000     0.00647998 
C        C      0.900600000000     0.814100000000     0.681400000000     0.00647998 
C        C      0.997700000000     0.826200000000     0.645300000000     0.00647998 
C        C      0.134600000000     0.812400000000     0.675400000000     0.00647998 
C        C      0.162400000000     0.790900000000     0.742400000000     0.00647998 
C        C      0.756100000000     0.830000000000     0.646300000000     0.00647998 
C        C      0.242900000000     0.831000000000     0.634800000000     0.00647998 
Cl       Cl     0.178700000000     0.261200000000     0.740300000000    -0.328079   
Cl       Cl     0.834100000000     0.967900000000     0.194200000000    -0.328079   
Cl       Cl     0.821300000000     0.761200000000     0.259700000000    -0.328079   
Cl       Cl     0.165900000000     0.467900000000     0.805800000000    -0.328079   
O        O      0.532400000000     0.275000000000     0.468500000000    -0.278731   
O        O      0.672500000000     0.351700000000     0.545800000000    -0.278731   
O        O      0.396100000000     0.007900000000     0.531300000000    -0.278731   
O        O      0.500700000000     0.958600000000     0.632000000000    -0.278731   
O        O      0.334300000000     0.304300000000     0.320400000000    -0.278731   
O        O      0.273800000000     0.361500000000     0.408600000000    -0.278731   
O        O      0.794400000000     0.363900000000     0.422100000000    -0.278731   
O        O      0.643200000000     0.312600000000     0.336700000000    -0.278731   
O        O      0.569700000000     0.186800000000     0.936200000000    -0.278731   
O        O      0.787900000000     0.374400000000     0.976700000000    -0.278731   
O        O      0.467600000000     0.775000000000     0.531500000000    -0.278731   
O        O      0.327500000000     0.851700000000     0.454200000000    -0.278731   
O        O      0.603900000000     0.507900000000     0.468700000000    -0.278731   
O        O      0.499300000000     0.458600000000     0.368000000000    -0.278731   
O        O      0.665700000000     0.804300000000     0.679600000000    -0.278731   
O        O      0.726200000000     0.861500000000     0.591400000000    -0.278731   
O        O      0.205600000000     0.863900000000     0.577900000000    -0.278731   
O        O      0.356800000000     0.812600000000     0.663300000000    -0.278731   
O        O      0.430300000000     0.686800000000     0.063800000000    -0.278731   
O        O      0.212100000000     0.874400000000     0.023300000000    -0.278731   


