data_GOGWAB_original

_audit_creation_method RASPA-1.0
_audit_creation_date 2022-1-31
_audit_author_name 'Felipe Lopes de Oliveira <felipe.lopes.oliveira@ibm.com>'

_cell_length_a    7.5571
_cell_length_b    12.571
_cell_length_c    12.571
_cell_angle_alpha 84.8165
_cell_angle_beta  72.5078
_cell_angle_gamma 72.5078
_cell_volume      1086.35

_symmetry_cell_setting          triclinic
_symmetry_space_group_name_Hall 'P 1'
_symmetry_space_group_name_H-M  'P 1'
_symmetry_Int_Tables_number     1

_symmetry_equiv_pos_as_xyz 'x,y,z'

loop_
_atom_site_label
_atom_site_type_symbol
_atom_site_fract_x
_atom_site_fract_y
_atom_site_fract_z
_atom_site_charge
Zn       Zn     0.500000000000     0.000000000000     0.000000000000     0.444926   
Zn       Zn     0.750000000000     0.500000000000     0.500000000000     0.444926   
H        H      0.625000000000     0.852000000000     0.648000000000     0.200265   
H        H      0.125000000000     0.148000000000     0.352000000000     0.200265   
H        H      0.727000000000     0.648000000000     0.148000000000     0.200265   
H        H      0.523000000000     0.352000000000     0.852000000000     0.200265   
C        C      0.611300000000     0.823700000000     0.808900000000     0.114961   
C        C      0.243900000000     0.176300000000     0.191100000000     0.114961   
C        C      0.579800000000     0.808900000000     0.176300000000     0.114961   
C        C      0.565000000000     0.191100000000     0.823700000000     0.114961   
C        C      0.006100000000     0.308900000000     0.323700000000     0.114961   
C        C      0.638700000000     0.691100000000     0.676300000000     0.114961   
C        C      0.685000000000     0.676300000000     0.308900000000     0.114961   
C        C      0.670200000000     0.323700000000     0.691100000000     0.114961   
C        C      0.625000000000     0.797200000000     0.702800000000     0.114961   
C        C      0.625000000000     0.632000000000     0.868000000000     0.114961   
C        C      0.125000000000     0.202800000000     0.297200000000     0.114961   
C        C      0.125000000000     0.368000000000     0.132000000000     0.114961   
C        C      0.672200000000     0.702800000000     0.202800000000     0.114961   
C        C      0.507000000000     0.868000000000     0.368000000000     0.114961   
C        C      0.577800000000     0.297200000000     0.797200000000     0.114961   
C        C      0.743000000000     0.132000000000     0.632000000000     0.114961   
S        S      0.625000000000     0.534060000000     0.965940000000    -0.0058793  
S        S      0.125000000000     0.465940000000     0.034060000000    -0.0058793  
S        S      0.409060000000     0.965940000000     0.465940000000    -0.0058793  
S        S      0.840940000000     0.034060000000     0.534060000000    -0.0058793  
N        N      0.613800000000     0.737500000000     0.890100000000    -0.162077   
N        N      0.241400000000     0.262500000000     0.109900000000    -0.162077   
N        N      0.496100000000     0.890100000000     0.262500000000    -0.162077   
N        N      0.648700000000     0.109900000000     0.737500000000    -0.162077   
N        N      0.008600000000     0.390100000000     0.237500000000    -0.162077   
N        N      0.636200000000     0.609900000000     0.762500000000    -0.162077   
N        N      0.601300000000     0.762500000000     0.390100000000    -0.162077   
N        N      0.753900000000     0.237500000000     0.609900000000    -0.162077   
O        O      0.603320000000     0.916190000000     0.843970000000    -0.27627    
O        O      0.363480000000     0.083810000000     0.156030000000    -0.27627    
O        O      0.552710000000     0.843970000000     0.083810000000    -0.27627    
O        O      0.480490000000     0.156030000000     0.916190000000    -0.27627    
O        O      0.886520000000     0.343970000000     0.416190000000    -0.27627    
O        O      0.646680000000     0.656030000000     0.583810000000    -0.27627    
O        O      0.769510000000     0.583810000000     0.343970000000    -0.27627    
O        O      0.697290000000     0.416190000000     0.656030000000    -0.27627    


