data_GOMREG_original

_audit_creation_method RASPA-1.0
_audit_creation_date 2022-1-30
_audit_author_name 'Felipe Lopes de Oliveira <felipe.lopes.oliveira@ibm.com>'

_cell_length_a    9.8995
_cell_length_b    9.8995
_cell_length_c    15.4191
_cell_angle_alpha 74.5636
_cell_angle_beta  74.5636
_cell_angle_gamma 82.5685
_cell_volume      1401.24

_symmetry_cell_setting          triclinic
_symmetry_space_group_name_Hall 'P 1'
_symmetry_space_group_name_H-M  'P 1'
_symmetry_Int_Tables_number     1

_symmetry_equiv_pos_as_xyz 'x,y,z'

loop_
_atom_site_label
_atom_site_type_symbol
_atom_site_fract_x
_atom_site_fract_y
_atom_site_fract_z
_atom_site_charge
Al       Al     0.930250000000     0.315150000000     0.124090000000     4.99207    
Al       Al     0.631320000000     0.883020000000     0.079670000000     4.99207    
Al       Al     0.025560000000     0.806760000000     0.163770000000     4.99207    
Al       Al     0.684850000000     0.069750000000     0.375910000000     4.99207    
Al       Al     0.116980000000     0.368680000000     0.420330000000     4.99207    
Al       Al     0.193240000000     0.974440000000     0.336230000000     4.99207    
Al       Al     0.069750000000     0.684850000000     0.875910000000     4.99207    
Al       Al     0.368680000000     0.116980000000     0.920330000000     4.99207    
Al       Al     0.974440000000     0.193240000000     0.836230000000     4.99207    
Al       Al     0.315150000000     0.930250000000     0.624090000000     4.99207    
Al       Al     0.883020000000     0.631320000000     0.579670000000     4.99207    
Al       Al     0.806760000000     0.025560000000     0.663770000000     4.99207    
P        P      0.869600000000     0.641020000000     0.075510000000     1.40509    
P        P      0.316820000000     0.934920000000     0.126560000000     1.40509    
P        P      0.777250000000     0.045210000000     0.170980000000     1.40509    
P        P      0.358980000000     0.130400000000     0.424490000000     1.40509    
P        P      0.065080000000     0.683180000000     0.373440000000     1.40509    
P        P      0.954790000000     0.222750000000     0.329020000000     1.40509    
P        P      0.130400000000     0.358980000000     0.924490000000     1.40509    
P        P      0.683180000000     0.065080000000     0.873440000000     1.40509    
P        P      0.222750000000     0.954790000000     0.829020000000     1.40509    
P        P      0.641020000000     0.869600000000     0.575510000000     1.40509    
P        P      0.934920000000     0.316820000000     0.626560000000     1.40509    
P        P      0.045210000000     0.777250000000     0.670980000000     1.40509    
O        O      0.214700000000     0.839100000000     0.120100000000    -1.59929    
O        O      0.840300000000     0.486100000000     0.108800000000    -1.59929    
O        O      0.670200000000     0.014000000000     0.126300000000    -1.59929    
O        O      0.263700000000     0.999300000000     0.207900000000    -1.59929    
O        O      0.795000000000     0.202600000000     0.139600000000    -1.59929    
O        O      0.981800000000     0.669000000000     0.116200000000    -1.59929    
O        O      0.727600000000     0.998400000000     0.275500000000    -1.59929    
O        O      0.454300000000     0.846500000000     0.130400000000    -1.59929    
O        O      0.345500000000     0.058300000000     0.042100000000    -1.59929    
O        O      0.915500000000     0.967300000000     0.140500000000    -1.59929    
O        O      0.732400000000     0.723800000000     0.106300000000    -1.59929    
O        O      0.915100000000     0.681700000000     0.970600000000    -1.59929    
O        O      0.160900000000     0.785300000000     0.379900000000    -1.59929    
O        O      0.513900000000     0.159700000000     0.391200000000    -1.59929    
O        O      0.986000000000     0.329800000000     0.373700000000    -1.59929    
O        O      0.000700000000     0.736300000000     0.292100000000    -1.59929    
O        O      0.797400000000     0.205000000000     0.360400000000    -1.59929    
O        O      0.331000000000     0.018200000000     0.383800000000    -1.59929    
O        O      0.001600000000     0.272400000000     0.224500000000    -1.59929    
O        O      0.153500000000     0.545700000000     0.369600000000    -1.59929    
O        O      0.941700000000     0.654500000000     0.457900000000    -1.59929    
O        O      0.032700000000     0.084500000000     0.359500000000    -1.59929    
O        O      0.276200000000     0.267600000000     0.393700000000    -1.59929    
O        O      0.318300000000     0.084900000000     0.529400000000    -1.59929    
O        O      0.785300000000     0.160900000000     0.879900000000    -1.59929    
O        O      0.159700000000     0.513900000000     0.891200000000    -1.59929    
O        O      0.329800000000     0.986000000000     0.873700000000    -1.59929    
O        O      0.736300000000     0.000700000000     0.792100000000    -1.59929    
O        O      0.205000000000     0.797400000000     0.860400000000    -1.59929    
O        O      0.018200000000     0.331000000000     0.883800000000    -1.59929    
O        O      0.272400000000     0.001600000000     0.724500000000    -1.59929    
O        O      0.545700000000     0.153500000000     0.869600000000    -1.59929    
O        O      0.654500000000     0.941700000000     0.957900000000    -1.59929    
O        O      0.084500000000     0.032700000000     0.859500000000    -1.59929    
O        O      0.267600000000     0.276200000000     0.893700000000    -1.59929    
O        O      0.084900000000     0.318300000000     0.029400000000    -1.59929    
O        O      0.839100000000     0.214700000000     0.620100000000    -1.59929    
O        O      0.486100000000     0.840300000000     0.608800000000    -1.59929    
O        O      0.014000000000     0.670200000000     0.626300000000    -1.59929    
O        O      0.999300000000     0.263700000000     0.707900000000    -1.59929    
O        O      0.202600000000     0.795000000000     0.639600000000    -1.59929    
O        O      0.669000000000     0.981800000000     0.616200000000    -1.59929    
O        O      0.998400000000     0.727600000000     0.775500000000    -1.59929    
O        O      0.846500000000     0.454300000000     0.630400000000    -1.59929    
O        O      0.058300000000     0.345500000000     0.542100000000    -1.59929    
O        O      0.967300000000     0.915500000000     0.640500000000    -1.59929    
O        O      0.723800000000     0.732400000000     0.606300000000    -1.59929    
O        O      0.681700000000     0.915100000000     0.470600000000    -1.59929    


