data_GULPIN_original

_audit_creation_method RASPA-1.0
_audit_creation_date 2022-1-28
_audit_author_name 'Felipe Lopes de Oliveira <felipe.lopes.oliveira@ibm.com>'

_cell_length_a    12.605
_cell_length_b    13.2711
_cell_length_c    13.2711
_cell_angle_alpha 85.3126
_cell_angle_beta  83.3681
_cell_angle_gamma 83.3681
_cell_volume      2185.14

_symmetry_cell_setting          triclinic
_symmetry_space_group_name_Hall 'P 1'
_symmetry_space_group_name_H-M  'P 1'
_symmetry_Int_Tables_number     1

_symmetry_equiv_pos_as_xyz 'x,y,z'

loop_
_atom_site_label
_atom_site_type_symbol
_atom_site_fract_x
_atom_site_fract_y
_atom_site_fract_z
_atom_site_charge
Zn       Zn     0.171230000000     0.172730000000     0.273030000000     0.439996   
Zn       Zn     0.328770000000     0.726970000000     0.827270000000     0.439996   
Zn       Zn     0.828770000000     0.827270000000     0.726970000000     0.439996   
Zn       Zn     0.671230000000     0.273030000000     0.172730000000     0.439996   
H        H      0.405700000000     0.186600000000     0.289400000000     0.0794662  
H        H      0.541700000000     0.113700000000     0.376500000000     0.0794662  
H        H      0.336900000000     0.952300000000     0.544700000000     0.0794662  
H        H      0.204500000000     0.030300000000     0.454100000000     0.0794662  
H        H      0.982100000000     0.231900000000     0.422100000000     0.0794662  
H        H      0.914700000000     0.359500000000     0.520100000000     0.0794662  
H        H      0.148000000000     0.521000000000     0.394000000000     0.0794662  
H        H      0.209400000000     0.389200000000     0.296400000000     0.0794662  
H        H      0.057900000000     0.868200000000     0.300000000000     0.0794662  
H        H      0.957800000000     0.735800000000     0.298400000000     0.0794662  
H        H      0.709800000000     0.927600000000     0.221000000000     0.0794662  
H        H      0.094300000000     0.710600000000     0.813400000000     0.0794662  
H        H      0.958300000000     0.623500000000     0.886300000000     0.0794662  
H        H      0.163100000000     0.455300000000     0.047700000000     0.0794662  
H        H      0.295500000000     0.545900000000     0.969700000000     0.0794662  
H        H      0.517900000000     0.577900000000     0.768100000000     0.0794662  
H        H      0.585300000000     0.479900000000     0.640500000000     0.0794662  
H        H      0.352000000000     0.606000000000     0.479000000000     0.0794662  
H        H      0.290600000000     0.703600000000     0.610800000000     0.0794662  
H        H      0.442100000000     0.700000000000     0.131800000000     0.0794662  
H        H      0.542200000000     0.701600000000     0.264200000000     0.0794662  
H        H      0.790200000000     0.779000000000     0.072400000000     0.0794662  
H        H      0.594300000000     0.813400000000     0.710600000000     0.0794662  
H        H      0.458300000000     0.886300000000     0.623500000000     0.0794662  
H        H      0.663100000000     0.047700000000     0.455300000000     0.0794662  
H        H      0.795500000000     0.969700000000     0.545900000000     0.0794662  
H        H      0.017900000000     0.768100000000     0.577900000000     0.0794662  
H        H      0.085300000000     0.640500000000     0.479900000000     0.0794662  
H        H      0.852000000000     0.479000000000     0.606000000000     0.0794662  
H        H      0.790600000000     0.610800000000     0.703600000000     0.0794662  
H        H      0.942100000000     0.131800000000     0.700000000000     0.0794662  
H        H      0.042200000000     0.264200000000     0.701600000000     0.0794662  
H        H      0.290200000000     0.072400000000     0.779000000000     0.0794662  
H        H      0.905700000000     0.289400000000     0.186600000000     0.0794662  
H        H      0.041700000000     0.376500000000     0.113700000000     0.0794662  
H        H      0.836900000000     0.544700000000     0.952300000000     0.0794662  
H        H      0.704500000000     0.454100000000     0.030300000000     0.0794662  
H        H      0.482100000000     0.422100000000     0.231900000000     0.0794662  
H        H      0.414700000000     0.520100000000     0.359500000000     0.0794662  
H        H      0.648000000000     0.394000000000     0.521000000000     0.0794662  
H        H      0.709400000000     0.296400000000     0.389200000000     0.0794662  
H        H      0.557900000000     0.300000000000     0.868200000000     0.0794662  
H        H      0.457800000000     0.298400000000     0.735800000000     0.0794662  
H        H      0.209800000000     0.221000000000     0.927600000000     0.0794662  
C        C      0.390800000000     0.137100000000     0.341100000000     0.08586    
C        C      0.473200000000     0.093700000000     0.393900000000     0.08586    
C        C      0.457100000000     0.022900000000     0.470500000000     0.08586    
C        C      0.353700000000     0.000100000000     0.491700000000     0.08586    
C        C      0.274300000000     0.046600000000     0.436200000000     0.08586    
C        C      0.016300000000     0.290900000000     0.415900000000     0.08586    
C        C      0.975300000000     0.367500000000     0.474300000000     0.08586    
C        C      0.020900000000     0.457000000000     0.467800000000     0.08586    
C        C      0.112100000000     0.463000000000     0.400400000000     0.08586    
C        C      0.149000000000     0.383000000000     0.343000000000     0.08586    
C        C      0.014200000000     0.067500000000     0.261100000000     0.08586    
C        C      0.944600000000     0.982200000000     0.266800000000     0.08586    
C        C      0.986900000000     0.881700000000     0.285700000000     0.08586    
C        C      0.927000000000     0.801700000000     0.283700000000     0.08586    
C        C      0.822800000000     0.817100000000     0.260700000000     0.08586    
C        C      0.779600000000     0.915300000000     0.238900000000     0.08586    
C        C      0.839600000000     0.997300000000     0.243500000000     0.08586    
C        C      0.783400000000     0.102800000000     0.231600000000     0.08586    
C        C      0.813000000000     0.625500000000     0.265300000000     0.08586    
C        C      0.109200000000     0.658900000000     0.862900000000     0.08586    
C        C      0.026800000000     0.606100000000     0.906300000000     0.08586    
C        C      0.042900000000     0.529500000000     0.977100000000     0.08586    
C        C      0.146300000000     0.508300000000     0.999900000000     0.08586    
C        C      0.225700000000     0.563800000000     0.953400000000     0.08586    
C        C      0.483700000000     0.584100000000     0.709100000000     0.08586    
C        C      0.524700000000     0.525700000000     0.632500000000     0.08586    
C        C      0.479100000000     0.532200000000     0.543000000000     0.08586    
C        C      0.387900000000     0.599600000000     0.537000000000     0.08586    
C        C      0.351000000000     0.657000000000     0.617000000000     0.08586    
C        C      0.485800000000     0.738900000000     0.932500000000     0.08586    
C        C      0.555400000000     0.733200000000     0.017800000000     0.08586    
C        C      0.513100000000     0.714300000000     0.118300000000     0.08586    
C        C      0.573000000000     0.716300000000     0.198300000000     0.08586    
C        C      0.677200000000     0.739300000000     0.182900000000     0.08586    
C        C      0.720400000000     0.761100000000     0.084700000000     0.08586    
C        C      0.660400000000     0.756500000000     0.002700000000     0.08586    
C        C      0.716600000000     0.768400000000     0.897200000000     0.08586    
C        C      0.687000000000     0.734700000000     0.374500000000     0.08586    
C        C      0.609200000000     0.862900000000     0.658900000000     0.08586    
C        C      0.526800000000     0.906300000000     0.606100000000     0.08586    
C        C      0.542900000000     0.977100000000     0.529500000000     0.08586    
C        C      0.646300000000     0.999900000000     0.508300000000     0.08586    
C        C      0.725700000000     0.953400000000     0.563800000000     0.08586    
C        C      0.983700000000     0.709100000000     0.584100000000     0.08586    
C        C      0.024700000000     0.632500000000     0.525700000000     0.08586    
C        C      0.979100000000     0.543000000000     0.532200000000     0.08586    
C        C      0.887900000000     0.537000000000     0.599600000000     0.08586    
C        C      0.851000000000     0.617000000000     0.657000000000     0.08586    
C        C      0.985800000000     0.932500000000     0.738900000000     0.08586    
C        C      0.055400000000     0.017800000000     0.733200000000     0.08586    
C        C      0.013100000000     0.118300000000     0.714300000000     0.08586    
C        C      0.073000000000     0.198300000000     0.716300000000     0.08586    
C        C      0.177200000000     0.182900000000     0.739300000000     0.08586    
C        C      0.220400000000     0.084700000000     0.761100000000     0.08586    
C        C      0.160400000000     0.002700000000     0.756500000000     0.08586    
C        C      0.216600000000     0.897200000000     0.768400000000     0.08586    
C        C      0.187000000000     0.374500000000     0.734700000000     0.08586    
C        C      0.890800000000     0.341100000000     0.137100000000     0.08586    
C        C      0.973200000000     0.393900000000     0.093700000000     0.08586    
C        C      0.957100000000     0.470500000000     0.022900000000     0.08586    
C        C      0.853700000000     0.491700000000     0.000100000000     0.08586    
C        C      0.774300000000     0.436200000000     0.046600000000     0.08586    
C        C      0.516300000000     0.415900000000     0.290900000000     0.08586    
C        C      0.475300000000     0.474300000000     0.367500000000     0.08586    
C        C      0.520900000000     0.467800000000     0.457000000000     0.08586    
C        C      0.612100000000     0.400400000000     0.463000000000     0.08586    
C        C      0.649000000000     0.343000000000     0.383000000000     0.08586    
C        C      0.514200000000     0.261100000000     0.067500000000     0.08586    
C        C      0.444600000000     0.266800000000     0.982200000000     0.08586    
C        C      0.486900000000     0.285700000000     0.881700000000     0.08586    
C        C      0.427000000000     0.283700000000     0.801700000000     0.08586    
C        C      0.322800000000     0.260700000000     0.817100000000     0.08586    
C        C      0.279600000000     0.238900000000     0.915300000000     0.08586    
C        C      0.339600000000     0.243500000000     0.997300000000     0.08586    
C        C      0.283400000000     0.231600000000     0.102800000000     0.08586    
C        C      0.313000000000     0.265300000000     0.625500000000     0.08586    
C        C      0.750000000000     0.730800000000     0.269200000000     0.08586    
C        C      0.250000000000     0.269200000000     0.730800000000     0.08586    
N        N      0.292200000000     0.113350000000     0.358650000000    -0.158793   
N        N      0.103700000000     0.295950000000     0.349550000000    -0.158793   
N        N      0.207800000000     0.641350000000     0.886650000000    -0.158793   
N        N      0.396300000000     0.650450000000     0.704050000000    -0.158793   
N        N      0.707800000000     0.886650000000     0.641350000000    -0.158793   
N        N      0.896300000000     0.704050000000     0.650450000000    -0.158793   
N        N      0.792200000000     0.358650000000     0.113350000000    -0.158793   
N        N      0.603700000000     0.349550000000     0.295950000000    -0.158793   
O        O      0.998900000000     0.142860000000     0.199960000000    -0.280776   
O        O      0.077600000000     0.058610000000     0.321270000000    -0.280776   
O        O      0.784400000000     0.161560000000     0.295940000000    -0.280776   
O        O      0.738600000000     0.127680000000     0.157840000000    -0.280776   
O        O      0.501100000000     0.800040000000     0.857140000000    -0.280776   
O        O      0.422400000000     0.678730000000     0.941390000000    -0.280776   
O        O      0.715600000000     0.704060000000     0.838440000000    -0.280776   
O        O      0.761400000000     0.842160000000     0.872320000000    -0.280776   
O        O      0.001100000000     0.857140000000     0.800040000000    -0.280776   
O        O      0.922400000000     0.941390000000     0.678730000000    -0.280776   
O        O      0.215600000000     0.838440000000     0.704060000000    -0.280776   
O        O      0.261400000000     0.872320000000     0.842160000000    -0.280776   
O        O      0.498900000000     0.199960000000     0.142860000000    -0.280776   
O        O      0.577600000000     0.321270000000     0.058610000000    -0.280776   
O        O      0.284400000000     0.295940000000     0.161560000000    -0.280776   
O        O      0.238600000000     0.157840000000     0.127680000000    -0.280776   
F        F      0.890780000000     0.624210000000     0.186330000000    -0.515901   
F        F      0.864100000000     0.596990000000     0.347570000000    -0.515901   
F        F      0.752120000000     0.554410000000     0.253350000000    -0.515901   
F        F      0.609220000000     0.813670000000     0.375790000000    -0.515901   
F        F      0.635900000000     0.652430000000     0.403010000000    -0.515901   
F        F      0.747880000000     0.746650000000     0.445590000000    -0.515901   
F        F      0.109220000000     0.375790000000     0.813670000000    -0.515901   
F        F      0.135900000000     0.403010000000     0.652430000000    -0.515901   
F        F      0.247880000000     0.445590000000     0.746650000000    -0.515901   
F        F      0.390780000000     0.186330000000     0.624210000000    -0.515901   
F        F      0.364100000000     0.347570000000     0.596990000000    -0.515901   
F        F      0.252120000000     0.253350000000     0.554410000000    -0.515901   


