data_GUQTOB_original

_audit_creation_method RASPA-1.0
_audit_creation_date 2022-1-28
_audit_author_name 'Felipe Lopes de Oliveira <felipe.lopes.oliveira@ibm.com>'

_cell_length_a    5.003
_cell_length_b    8.5434
_cell_length_c    12.4336
_cell_angle_alpha 92.99
_cell_angle_beta  97.138
_cell_angle_gamma 91.465
_cell_volume      526.333

_symmetry_cell_setting          triclinic
_symmetry_space_group_name_Hall 'P 1'
_symmetry_space_group_name_H-M  'P 1'
_symmetry_Int_Tables_number     1

_symmetry_equiv_pos_as_xyz 'x,y,z'

loop_
_atom_site_label
_atom_site_type_symbol
_atom_site_fract_x
_atom_site_fract_y
_atom_site_fract_z
_atom_site_charge
Zn       Zn     0.393700000000     0.863260000000     0.059550000000     0.489954   
Zn       Zn     0.886200000000     0.637240000000     0.860500000000     0.489954   
Zn       Zn     0.144700000000     0.031800000000     0.297670000000     0.489954   
Zn       Zn     0.606300000000     0.136740000000     0.940450000000     0.489954   
Zn       Zn     0.113800000000     0.362760000000     0.139500000000     0.489954   
Zn       Zn     0.855300000000     0.968200000000     0.702330000000     0.489954   
P        P      0.382200000000     0.823900000000     0.799700000000     0.504105   
P        P      0.958200000000     0.712100000000     0.123100000000     0.504105   
P        P      0.617800000000     0.176100000000     0.200300000000     0.504105   
P        P      0.041800000000     0.287900000000     0.876900000000     0.504105   
C        C      0.959500000000     0.915000000000     0.482700000000     0.226311   
C        C      0.040500000000     0.085000000000     0.517300000000     0.226311   
O        O      0.660900000000     0.725000000000     0.123300000000    -0.270438   
O        O      0.454900000000     0.914400000000     0.909700000000    -0.270438   
O        O      0.118700000000     0.863300000000     0.171300000000    -0.270438   
O        O      0.045200000000     0.694900000000     0.007000000000    -0.270438   
O        O      0.051900000000     0.573800000000     0.190100000000    -0.270438   
O        O      0.509900000000     0.663600000000     0.808200000000    -0.270438   
O        O      0.071600000000     0.798700000000     0.778500000000    -0.270438   
O        O      0.472400000000     0.919800000000     0.710300000000    -0.270438   
O        O      0.010100000000     0.863200000000     0.390100000000    -0.270438   
O        O      0.857000000000     0.836500000000     0.549300000000    -0.270438   
O        O      0.339100000000     0.275000000000     0.876700000000    -0.270438   
O        O      0.545100000000     0.085600000000     0.090300000000    -0.270438   
O        O      0.881300000000     0.136700000000     0.828700000000    -0.270438   
O        O      0.954800000000     0.305100000000     0.993000000000    -0.270438   
O        O      0.948100000000     0.426200000000     0.809900000000    -0.270438   
O        O      0.490100000000     0.336400000000     0.191800000000    -0.270438   
O        O      0.928400000000     0.201300000000     0.221500000000    -0.270438   
O        O      0.527600000000     0.080200000000     0.289700000000    -0.270438   
O        O      0.989900000000     0.136800000000     0.609900000000    -0.270438   
O        O      0.143000000000     0.163500000000     0.450700000000    -0.270438   


