data_GUYLUI_original

_audit_creation_method RASPA-1.0
_audit_creation_date 2022-1-30
_audit_author_name 'Felipe Lopes de Oliveira <felipe.lopes.oliveira@ibm.com>'

_cell_length_a    9.376
_cell_length_b    14.0157
_cell_length_c    14.0157
_cell_angle_alpha 101.73
_cell_angle_beta  101.451
_cell_angle_gamma 101.451
_cell_volume      1711.82

_symmetry_cell_setting          triclinic
_symmetry_space_group_name_Hall 'P 1'
_symmetry_space_group_name_H-M  'P 1'
_symmetry_Int_Tables_number     1

_symmetry_equiv_pos_as_xyz 'x,y,z'

loop_
_atom_site_label
_atom_site_type_symbol
_atom_site_fract_x
_atom_site_fract_y
_atom_site_fract_z
_atom_site_charge
Zn       Zn     0.911540000000     0.824580000000     0.275660000000     0.467214   
Zn       Zn     0.588460000000     0.724340000000     0.175420000000     0.467214   
Zn       Zn     0.088460000000     0.175420000000     0.724340000000     0.467214   
Zn       Zn     0.411540000000     0.275660000000     0.824580000000     0.467214   
H        H      0.084000000000     0.902900000000     0.488900000000     0.0542445  
H        H      0.326200000000     0.971900000000     0.584100000000     0.0542445  
H        H      0.457400000000     0.976100000000     0.332700000000     0.0542445  
H        H      0.211200000000     0.909300000000     0.243700000000     0.0542445  
H        H      0.062300000000     0.519000000000     0.267200000000     0.0542445  
H        H      0.016900000000     0.337500000000     0.251500000000     0.0542445  
H        H      0.473400000000     0.007600000000     0.084000000000     0.0542445  
H        H      0.534900000000     0.182400000000     0.071400000000     0.0542445  
H        H      0.416000000000     0.511100000000     0.097100000000     0.0542445  
H        H      0.173800000000     0.415900000000     0.028100000000     0.0542445  
H        H      0.042600000000     0.667300000000     0.023900000000     0.0542445  
H        H      0.288800000000     0.756300000000     0.090700000000     0.0542445  
H        H      0.437700000000     0.732800000000     0.481000000000     0.0542445  
H        H      0.483100000000     0.748500000000     0.662500000000     0.0542445  
H        H      0.026600000000     0.916000000000     0.992400000000     0.0542445  
H        H      0.965100000000     0.928600000000     0.817600000000     0.0542445  
H        H      0.916000000000     0.097100000000     0.511100000000     0.0542445  
H        H      0.673800000000     0.028100000000     0.415900000000     0.0542445  
H        H      0.542600000000     0.023900000000     0.667300000000     0.0542445  
H        H      0.788800000000     0.090700000000     0.756300000000     0.0542445  
H        H      0.937700000000     0.481000000000     0.732800000000     0.0542445  
H        H      0.983100000000     0.662500000000     0.748500000000     0.0542445  
H        H      0.526600000000     0.992400000000     0.916000000000     0.0542445  
H        H      0.465100000000     0.817600000000     0.928600000000     0.0542445  
H        H      0.584000000000     0.488900000000     0.902900000000     0.0542445  
H        H      0.826200000000     0.584100000000     0.971900000000     0.0542445  
H        H      0.957400000000     0.332700000000     0.976100000000     0.0542445  
H        H      0.711200000000     0.243700000000     0.909300000000     0.0542445  
H        H      0.562300000000     0.267200000000     0.519000000000     0.0542445  
H        H      0.516900000000     0.251500000000     0.337500000000     0.0542445  
H        H      0.973400000000     0.084000000000     0.007600000000     0.0542445  
H        H      0.034900000000     0.071400000000     0.182400000000     0.0542445  
C        C      0.161000000000     0.915900000000     0.455900000000     0.0247521  
C        C      0.307000000000     0.957580000000     0.513620000000     0.0247521  
C        C      0.422000000000     0.977840000000     0.470560000000     0.0247521  
C        C      0.383000000000     0.960300000000     0.367100000000     0.0247521  
C        C      0.234900000000     0.919400000000     0.314000000000     0.0247521  
C        C      0.812400000000     0.604530000000     0.220690000000     0.0247521  
C        C      0.836300000000     0.503730000000     0.220110000000     0.0247521  
C        C      0.966200000000     0.474470000000     0.245730000000     0.0247521  
C        C      0.939700000000     0.370020000000     0.236580000000     0.0247521  
C        C      0.791600000000     0.320710000000     0.204010000000     0.0247521  
C        C      0.720700000000     0.214370000000     0.186490000000     0.0247521  
C        C      0.663200000000     0.037310000000     0.196190000000     0.0247521  
C        C      0.559300000000     0.056470000000     0.124830000000     0.0247521  
C        C      0.593800000000     0.157510000000     0.118290000000     0.0247521  
C        C      0.678900000000     0.939580000000     0.213360000000     0.0247521  
C        C      0.339000000000     0.544100000000     0.084100000000     0.0247521  
C        C      0.193000000000     0.486380000000     0.042420000000     0.0247521  
C        C      0.078000000000     0.529440000000     0.022160000000     0.0247521  
C        C      0.117000000000     0.632900000000     0.039700000000     0.0247521  
C        C      0.265100000000     0.686000000000     0.080600000000     0.0247521  
C        C      0.687600000000     0.779310000000     0.395470000000     0.0247521  
C        C      0.663700000000     0.779890000000     0.496270000000     0.0247521  
C        C      0.533800000000     0.754270000000     0.525530000000     0.0247521  
C        C      0.560300000000     0.763420000000     0.629980000000     0.0247521  
C        C      0.708400000000     0.795990000000     0.679290000000     0.0247521  
C        C      0.779300000000     0.813510000000     0.785630000000     0.0247521  
C        C      0.836800000000     0.803810000000     0.962690000000     0.0247521  
C        C      0.940700000000     0.875170000000     0.943530000000     0.0247521  
C        C      0.906200000000     0.881710000000     0.842490000000     0.0247521  
C        C      0.821100000000     0.786640000000     0.060420000000     0.0247521  
C        C      0.839000000000     0.084100000000     0.544100000000     0.0247521  
C        C      0.693000000000     0.042420000000     0.486380000000     0.0247521  
C        C      0.578000000000     0.022160000000     0.529440000000     0.0247521  
C        C      0.617000000000     0.039700000000     0.632900000000     0.0247521  
C        C      0.765100000000     0.080600000000     0.686000000000     0.0247521  
C        C      0.187600000000     0.395470000000     0.779310000000     0.0247521  
C        C      0.163700000000     0.496270000000     0.779890000000     0.0247521  
C        C      0.033800000000     0.525530000000     0.754270000000     0.0247521  
C        C      0.060300000000     0.629980000000     0.763420000000     0.0247521  
C        C      0.208400000000     0.679290000000     0.795990000000     0.0247521  
C        C      0.279300000000     0.785630000000     0.813510000000     0.0247521  
C        C      0.336800000000     0.962690000000     0.803810000000     0.0247521  
C        C      0.440700000000     0.943530000000     0.875170000000     0.0247521  
C        C      0.406200000000     0.842490000000     0.881710000000     0.0247521  
C        C      0.321100000000     0.060420000000     0.786640000000     0.0247521  
C        C      0.661000000000     0.455900000000     0.915900000000     0.0247521  
C        C      0.807000000000     0.513620000000     0.957580000000     0.0247521  
C        C      0.922000000000     0.470560000000     0.977840000000     0.0247521  
C        C      0.883000000000     0.367100000000     0.960300000000     0.0247521  
C        C      0.734900000000     0.314000000000     0.919400000000     0.0247521  
C        C      0.312400000000     0.220690000000     0.604530000000     0.0247521  
C        C      0.336300000000     0.220110000000     0.503730000000     0.0247521  
C        C      0.466200000000     0.245730000000     0.474470000000     0.0247521  
C        C      0.439700000000     0.236580000000     0.370020000000     0.0247521  
C        C      0.291600000000     0.204010000000     0.320710000000     0.0247521  
C        C      0.220700000000     0.186490000000     0.214370000000     0.0247521  
C        C      0.163200000000     0.196190000000     0.037310000000     0.0247521  
C        C      0.059300000000     0.124830000000     0.056470000000     0.0247521  
C        C      0.093800000000     0.118290000000     0.157510000000     0.0247521  
C        C      0.178900000000     0.213360000000     0.939580000000     0.0247521  
S        S      0.681550000000     0.403240000000     0.183440000000     0.033587   
S        S      0.800990000000     0.144750000000     0.259130000000     0.033587   
S        S      0.818450000000     0.816560000000     0.596760000000     0.033587   
S        S      0.699010000000     0.740870000000     0.855250000000     0.033587   
S        S      0.318450000000     0.596760000000     0.816560000000     0.033587   
S        S      0.199010000000     0.855250000000     0.740870000000     0.033587   
S        S      0.181550000000     0.183440000000     0.403240000000     0.033587   
S        S      0.300990000000     0.259130000000     0.144750000000     0.033587   
N        N      0.125300000000     0.893710000000     0.357010000000    -0.163612   
N        N      0.374700000000     0.642990000000     0.106290000000    -0.163612   
N        N      0.874700000000     0.106290000000     0.642990000000    -0.163612   
N        N      0.625300000000     0.357010000000     0.893710000000    -0.163612   
O        O      0.925200000000     0.677630000000     0.245030000000    -0.294003   
O        O      0.822400000000     0.801320000000     0.391560000000    -0.294003   
O        O      0.799800000000     0.938210000000     0.268950000000    -0.294003   
O        O      0.569400000000     0.864830000000     0.169350000000    -0.294003   
O        O      0.574800000000     0.754970000000     0.322370000000    -0.294003   
O        O      0.677600000000     0.608440000000     0.198680000000    -0.294003   
O        O      0.700200000000     0.731050000000     0.061790000000    -0.294003   
O        O      0.930600000000     0.830650000000     0.135170000000    -0.294003   
O        O      0.074800000000     0.322370000000     0.754970000000    -0.294003   
O        O      0.177600000000     0.198680000000     0.608440000000    -0.294003   
O        O      0.200200000000     0.061790000000     0.731050000000    -0.294003   
O        O      0.430600000000     0.135170000000     0.830650000000    -0.294003   
O        O      0.425200000000     0.245030000000     0.677630000000    -0.294003   
O        O      0.322400000000     0.391560000000     0.801320000000    -0.294003   
O        O      0.299800000000     0.268950000000     0.938210000000    -0.294003   
O        O      0.069400000000     0.169350000000     0.864830000000    -0.294003   


