data_GUYMAP_original

_audit_creation_method RASPA-1.0
_audit_creation_date 2022-1-30
_audit_author_name 'Felipe Lopes de Oliveira <felipe.lopes.oliveira@ibm.com>'

_cell_length_a    14.003
_cell_length_b    14.1046
_cell_length_c    14.1046
_cell_angle_alpha 103.263
_cell_angle_beta  105.662
_cell_angle_gamma 105.662
_cell_volume      2441.58

_symmetry_cell_setting          triclinic
_symmetry_space_group_name_Hall 'P 1'
_symmetry_space_group_name_H-M  'P 1'
_symmetry_Int_Tables_number     1

_symmetry_equiv_pos_as_xyz 'x,y,z'

loop_
_atom_site_label
_atom_site_type_symbol
_atom_site_fract_x
_atom_site_fract_y
_atom_site_fract_z
_atom_site_charge
Zn       Zn     0.363700000000     0.663630000000     0.375530000000     0.458586   
Zn       Zn     0.136300000000     0.624470000000     0.336370000000     0.458586   
Zn       Zn     0.636300000000     0.336370000000     0.624470000000     0.458586   
Zn       Zn     0.863700000000     0.375530000000     0.663630000000     0.458586   
H        H      0.650000000000     0.524000000000     0.411000000000     0.0561404  
H        H      0.485900000000     0.027400000000     0.411800000000     0.0561404  
H        H      0.484300000000     0.531500000000     0.404700000000     0.0561404  
H        H      0.469700000000     0.703900000000     0.737900000000     0.0561404  
H        H      0.421900000000     0.696200000000     0.895800000000     0.0561404  
H        H      0.688600000000     0.769700000000     0.304300000000     0.0561404  
H        H      0.420400000000     0.177100000000     0.385700000000     0.0561404  
H        H      0.559500000000     0.795700000000     0.366700000000     0.0561404  
H        H      0.850000000000     0.589000000000     0.476000000000     0.0561404  
H        H      0.014100000000     0.588200000000     0.972600000000     0.0561404  
H        H      0.015700000000     0.595300000000     0.468500000000     0.0561404  
H        H      0.030300000000     0.262100000000     0.296100000000     0.0561404  
H        H      0.078100000000     0.104200000000     0.303800000000     0.0561404  
H        H      0.811400000000     0.695700000000     0.230300000000     0.0561404  
H        H      0.079600000000     0.614300000000     0.822900000000     0.0561404  
H        H      0.940500000000     0.633300000000     0.204300000000     0.0561404  
H        H      0.350000000000     0.476000000000     0.589000000000     0.0561404  
H        H      0.514100000000     0.972600000000     0.588200000000     0.0561404  
H        H      0.515700000000     0.468500000000     0.595300000000     0.0561404  
H        H      0.530300000000     0.296100000000     0.262100000000     0.0561404  
H        H      0.578100000000     0.303800000000     0.104200000000     0.0561404  
H        H      0.311400000000     0.230300000000     0.695700000000     0.0561404  
H        H      0.579600000000     0.822900000000     0.614300000000     0.0561404  
H        H      0.440500000000     0.204300000000     0.633300000000     0.0561404  
H        H      0.150000000000     0.411000000000     0.524000000000     0.0561404  
H        H      0.985900000000     0.411800000000     0.027400000000     0.0561404  
H        H      0.984300000000     0.404700000000     0.531500000000     0.0561404  
H        H      0.969700000000     0.737900000000     0.703900000000     0.0561404  
H        H      0.921900000000     0.895800000000     0.696200000000     0.0561404  
H        H      0.188600000000     0.304300000000     0.769700000000     0.0561404  
H        H      0.920400000000     0.385700000000     0.177100000000     0.0561404  
H        H      0.059500000000     0.366700000000     0.795700000000     0.0561404  
C        C      0.313500000000     0.683200000000     0.666000000000     0.0193143  
C        C      0.301900000000     0.837400000000     0.383200000000     0.0193143  
C        C      0.700400000000     0.643300000000     0.355900000000     0.0193143  
C        C      0.289300000000     0.671100000000     0.546100000000     0.0193143  
C        C      0.271600000000     0.098800000000     0.347200000000     0.0193143  
C        C      0.311300000000     0.944400000000     0.373400000000     0.0193143  
C        C      0.268100000000     0.663400000000     0.821200000000     0.0193143  
C        C      0.630000000000     0.575300000000     0.389100000000     0.0193143  
C        C      0.417100000000     0.028000000000     0.394000000000     0.0193143  
C        C      0.529800000000     0.582900000000     0.390100000000     0.0193143  
C        C      0.402600000000     0.693800000000     0.742000000000     0.0193143  
C        C      0.371500000000     0.685900000000     0.832300000000     0.0193143  
C        C      0.656900000000     0.724100000000     0.334500000000     0.0193143  
C        C      0.372800000000     0.112200000000     0.375800000000     0.0193143  
C        C      0.570100000000     0.732400000000     0.358800000000     0.0193143  
C        C      0.186500000000     0.334000000000     0.316800000000     0.0193143  
C        C      0.198100000000     0.616800000000     0.162600000000     0.0193143  
C        C      0.799600000000     0.644100000000     0.356700000000     0.0193143  
C        C      0.210700000000     0.453900000000     0.328900000000     0.0193143  
C        C      0.228400000000     0.652800000000     0.901200000000     0.0193143  
C        C      0.188700000000     0.626600000000     0.055600000000     0.0193143  
C        C      0.231900000000     0.178800000000     0.336600000000     0.0193143  
C        C      0.870000000000     0.610900000000     0.424700000000     0.0193143  
C        C      0.082900000000     0.606000000000     0.972000000000     0.0193143  
C        C      0.970200000000     0.609900000000     0.417100000000     0.0193143  
C        C      0.097400000000     0.258000000000     0.306200000000     0.0193143  
C        C      0.128500000000     0.167700000000     0.314100000000     0.0193143  
C        C      0.843100000000     0.665500000000     0.275900000000     0.0193143  
C        C      0.127200000000     0.624200000000     0.887800000000     0.0193143  
C        C      0.929900000000     0.641200000000     0.267600000000     0.0193143  
C        C      0.686500000000     0.316800000000     0.334000000000     0.0193143  
C        C      0.698100000000     0.162600000000     0.616800000000     0.0193143  
C        C      0.299600000000     0.356700000000     0.644100000000     0.0193143  
C        C      0.710700000000     0.328900000000     0.453900000000     0.0193143  
C        C      0.728400000000     0.901200000000     0.652800000000     0.0193143  
C        C      0.688700000000     0.055600000000     0.626600000000     0.0193143  
C        C      0.731900000000     0.336600000000     0.178800000000     0.0193143  
C        C      0.370000000000     0.424700000000     0.610900000000     0.0193143  
C        C      0.582900000000     0.972000000000     0.606000000000     0.0193143  
C        C      0.470200000000     0.417100000000     0.609900000000     0.0193143  
C        C      0.597400000000     0.306200000000     0.258000000000     0.0193143  
C        C      0.628500000000     0.314100000000     0.167700000000     0.0193143  
C        C      0.343100000000     0.275900000000     0.665500000000     0.0193143  
C        C      0.627200000000     0.887800000000     0.624200000000     0.0193143  
C        C      0.429900000000     0.267600000000     0.641200000000     0.0193143  
C        C      0.813500000000     0.666000000000     0.683200000000     0.0193143  
C        C      0.801900000000     0.383200000000     0.837400000000     0.0193143  
C        C      0.200400000000     0.355900000000     0.643300000000     0.0193143  
C        C      0.789300000000     0.546100000000     0.671100000000     0.0193143  
C        C      0.771600000000     0.347200000000     0.098800000000     0.0193143  
C        C      0.811300000000     0.373400000000     0.944400000000     0.0193143  
C        C      0.768100000000     0.821200000000     0.663400000000     0.0193143  
C        C      0.130000000000     0.389100000000     0.575300000000     0.0193143  
C        C      0.917100000000     0.394000000000     0.028000000000     0.0193143  
C        C      0.029800000000     0.390100000000     0.582900000000     0.0193143  
C        C      0.902600000000     0.742000000000     0.693800000000     0.0193143  
C        C      0.871500000000     0.832300000000     0.685900000000     0.0193143  
C        C      0.156900000000     0.334500000000     0.724100000000     0.0193143  
C        C      0.872800000000     0.375800000000     0.112200000000     0.0193143  
C        C      0.070100000000     0.358800000000     0.732400000000     0.0193143  
S        S      0.202500000000     0.979030000000     0.342970000000     0.0275882  
S        S      0.203800000000     0.658580000000     0.700200000000     0.0275882  
S        S      0.297500000000     0.657030000000     0.020970000000     0.0275882  
S        S      0.296200000000     0.299800000000     0.341420000000     0.0275882  
S        S      0.797500000000     0.020970000000     0.657030000000     0.0275882  
S        S      0.796200000000     0.341420000000     0.299800000000     0.0275882  
S        S      0.702500000000     0.342970000000     0.979030000000     0.0275882  
S        S      0.703800000000     0.700200000000     0.658580000000     0.0275882  
N        N      0.500800000000     0.656800000000     0.371600000000    -0.165667   
N        N      0.999200000000     0.628400000000     0.343200000000    -0.165667   
N        N      0.499200000000     0.343200000000     0.628400000000    -0.165667   
N        N      0.000800000000     0.371600000000     0.656800000000    -0.165667   
O        O      0.385000000000     0.815900000000     0.396900000000    -0.271733   
O        O      0.382100000000     0.684800000000     0.528800000000    -0.271733   
O        O      0.200200000000     0.777700000000     0.359300000000    -0.271733   
O        O      0.193500000000     0.648200000000     0.489600000000    -0.271733   
O        O      0.115000000000     0.603100000000     0.184100000000    -0.271733   
O        O      0.117900000000     0.471200000000     0.315200000000    -0.271733   
O        O      0.299800000000     0.640700000000     0.222300000000    -0.271733   
O        O      0.306500000000     0.510400000000     0.351800000000    -0.271733   
O        O      0.615000000000     0.184100000000     0.603100000000    -0.271733   
O        O      0.617900000000     0.315200000000     0.471200000000    -0.271733   
O        O      0.799800000000     0.222300000000     0.640700000000    -0.271733   
O        O      0.806500000000     0.351800000000     0.510400000000    -0.271733   
O        O      0.885000000000     0.396900000000     0.815900000000    -0.271733   
O        O      0.882100000000     0.528800000000     0.684800000000    -0.271733   
O        O      0.700200000000     0.359300000000     0.777700000000    -0.271733   
O        O      0.693500000000     0.489600000000     0.648200000000    -0.271733   


