data_HABRIN_original

_audit_creation_method RASPA-1.0
_audit_creation_date 2022-1-31
_audit_author_name 'Felipe Lopes de Oliveira <felipe.lopes.oliveira@ibm.com>'

_cell_length_a    12.4895
_cell_length_b    12.4895
_cell_length_c    18.254
_cell_angle_alpha 98.7567
_cell_angle_beta  98.7567
_cell_angle_gamma 116.378
_cell_volume      2442.23

_symmetry_cell_setting          triclinic
_symmetry_space_group_name_Hall 'P 1'
_symmetry_space_group_name_H-M  'P 1'
_symmetry_Int_Tables_number     1

_symmetry_equiv_pos_as_xyz 'x,y,z'

loop_
_atom_site_label
_atom_site_type_symbol
_atom_site_fract_x
_atom_site_fract_y
_atom_site_fract_z
_atom_site_charge
Zn       Zn     0.202230000000     0.336250000000     0.959480000000     0.390432   
Zn       Zn     0.663750000000     0.797770000000     0.540520000000     0.390432   
Zn       Zn     0.797770000000     0.663750000000     0.040520000000     0.390432   
Zn       Zn     0.336250000000     0.202230000000     0.459480000000     0.390432   
Zn       Zn     0.763760000000     0.236240000000     0.250000000000     0.390432   
Zn       Zn     0.236240000000     0.763760000000     0.750000000000     0.390432   
B        B      0.711500000000     0.034300000000     0.945300000000     0.963475   
B        B      0.965700000000     0.288500000000     0.554700000000     0.963475   
B        B      0.288500000000     0.965700000000     0.054700000000     0.963475   
B        B      0.034300000000     0.711500000000     0.445300000000     0.963475   
H        H      0.805000000000     0.977000000000     0.819000000000     0.0205733  
H        H      0.020000000000     0.108000000000     0.812000000000     0.0205733  
H        H      0.947000000000     0.233000000000     0.005000000000     0.0205733  
H        H      0.584000000000     0.712000000000     0.064000000000     0.0205733  
H        H      0.550000000000     0.880000000000     0.026000000000     0.0205733  
H        H      0.824000000000     0.876000000000     0.954000000000     0.0205733  
H        H      0.768000000000     0.082000000000     0.103000000000     0.0205733  
H        H      0.756000000000     0.378000000000     0.098000000000     0.0205733  
H        H      0.698000000000     0.256000000000     0.963000000000     0.0205733  
H        H      0.671000000000     0.113000000000     0.820000000000     0.0205733  
H        H      0.464000000000     0.000000000000     0.722000000000     0.0205733  
H        H      0.472000000000     0.844000000000     0.884000000000     0.0205733  
H        H      0.193000000000     0.419000000000     0.246000000000     0.0205733  
H        H      0.420000000000     0.670000000000     0.142000000000     0.0205733  
H        H      0.271000000000     0.363000000000     0.676000000000     0.0205733  
H        H      0.497000000000     0.597000000000     0.881000000000     0.0205733  
H        H      0.023000000000     0.195000000000     0.681000000000     0.0205733  
H        H      0.892000000000     0.980000000000     0.688000000000     0.0205733  
H        H      0.767000000000     0.053000000000     0.495000000000     0.0205733  
H        H      0.288000000000     0.416000000000     0.436000000000     0.0205733  
H        H      0.120000000000     0.450000000000     0.474000000000     0.0205733  
H        H      0.124000000000     0.176000000000     0.546000000000     0.0205733  
H        H      0.918000000000     0.232000000000     0.397000000000     0.0205733  
H        H      0.622000000000     0.244000000000     0.402000000000     0.0205733  
H        H      0.744000000000     0.302000000000     0.537000000000     0.0205733  
H        H      0.887000000000     0.329000000000     0.680000000000     0.0205733  
H        H      0.000000000000     0.536000000000     0.778000000000     0.0205733  
H        H      0.156000000000     0.528000000000     0.616000000000     0.0205733  
H        H      0.581000000000     0.807000000000     0.254000000000     0.0205733  
H        H      0.330000000000     0.580000000000     0.358000000000     0.0205733  
H        H      0.637000000000     0.729000000000     0.824000000000     0.0205733  
H        H      0.403000000000     0.503000000000     0.619000000000     0.0205733  
H        H      0.195000000000     0.023000000000     0.181000000000     0.0205733  
H        H      0.980000000000     0.892000000000     0.188000000000     0.0205733  
H        H      0.053000000000     0.767000000000     0.995000000000     0.0205733  
H        H      0.416000000000     0.288000000000     0.936000000000     0.0205733  
H        H      0.450000000000     0.120000000000     0.974000000000     0.0205733  
H        H      0.176000000000     0.124000000000     0.046000000000     0.0205733  
H        H      0.232000000000     0.918000000000     0.897000000000     0.0205733  
H        H      0.244000000000     0.622000000000     0.902000000000     0.0205733  
H        H      0.302000000000     0.744000000000     0.037000000000     0.0205733  
H        H      0.329000000000     0.887000000000     0.180000000000     0.0205733  
H        H      0.536000000000     0.000000000000     0.278000000000     0.0205733  
H        H      0.528000000000     0.156000000000     0.116000000000     0.0205733  
H        H      0.807000000000     0.581000000000     0.754000000000     0.0205733  
H        H      0.580000000000     0.330000000000     0.858000000000     0.0205733  
H        H      0.729000000000     0.637000000000     0.324000000000     0.0205733  
H        H      0.503000000000     0.403000000000     0.119000000000     0.0205733  
H        H      0.977000000000     0.805000000000     0.319000000000     0.0205733  
H        H      0.108000000000     0.020000000000     0.312000000000     0.0205733  
H        H      0.233000000000     0.947000000000     0.505000000000     0.0205733  
H        H      0.712000000000     0.584000000000     0.564000000000     0.0205733  
H        H      0.880000000000     0.550000000000     0.526000000000     0.0205733  
H        H      0.876000000000     0.824000000000     0.454000000000     0.0205733  
H        H      0.082000000000     0.768000000000     0.603000000000     0.0205733  
H        H      0.378000000000     0.756000000000     0.598000000000     0.0205733  
H        H      0.256000000000     0.698000000000     0.463000000000     0.0205733  
H        H      0.113000000000     0.671000000000     0.320000000000     0.0205733  
H        H      0.000000000000     0.464000000000     0.222000000000     0.0205733  
H        H      0.844000000000     0.472000000000     0.384000000000     0.0205733  
H        H      0.419000000000     0.193000000000     0.746000000000     0.0205733  
H        H      0.670000000000     0.420000000000     0.642000000000     0.0205733  
H        H      0.363000000000     0.271000000000     0.176000000000     0.0205733  
H        H      0.597000000000     0.497000000000     0.381000000000     0.0205733  
C        C      0.858200000000     0.041000000000     0.854100000000     0.0596653  
C        C      0.974600000000     0.115000000000     0.854200000000     0.0596653  
C        C      0.938100000000     0.188700000000     0.955800000000     0.0596653  
C        C      0.620500000000     0.770500000000     0.036000000000     0.0596653  
C        C      0.606000000000     0.863000000000     0.015800000000     0.0596653  
C        C      0.760300000000     0.860300000000     0.978600000000     0.0596653  
C        C      0.761000000000     0.143800000000     0.086900000000     0.0596653  
C        C      0.748300000000     0.306100000000     0.081100000000     0.0596653  
C        C      0.717100000000     0.239700000000     0.009200000000     0.0596653  
C        C      0.598300000000     0.051900000000     0.817200000000     0.0596653  
C        C      0.489300000000     0.984900000000     0.767200000000     0.0596653  
C        C      0.493100000000     0.893100000000     0.855300000000     0.0596653  
C        C      0.217100000000     0.443900000000     0.108900000000     0.0596653  
C        C      0.272100000000     0.518100000000     0.252100000000     0.0596653  
C        C      0.295800000000     0.539400000000     0.181300000000     0.0596653  
C        C      0.398400000000     0.645000000000     0.181500000000     0.0596653  
C        C      0.287700000000     0.388700000000     0.828500000000     0.0596653  
C        C      0.371200000000     0.471400000000     0.786900000000     0.0596653  
C        C      0.346200000000     0.443400000000     0.708900000000     0.0596653  
C        C      0.476200000000     0.578200000000     0.828400000000     0.0596653  
C        C      0.959000000000     0.141800000000     0.645900000000     0.0596653  
C        C      0.885000000000     0.025400000000     0.645800000000     0.0596653  
C        C      0.811300000000     0.061900000000     0.544200000000     0.0596653  
C        C      0.229500000000     0.379500000000     0.464000000000     0.0596653  
C        C      0.137000000000     0.394000000000     0.484200000000     0.0596653  
C        C      0.139700000000     0.239700000000     0.521400000000     0.0596653  
C        C      0.856200000000     0.239000000000     0.413100000000     0.0596653  
C        C      0.693900000000     0.251700000000     0.418900000000     0.0596653  
C        C      0.760300000000     0.282900000000     0.490800000000     0.0596653  
C        C      0.948100000000     0.401700000000     0.682800000000     0.0596653  
C        C      0.015100000000     0.510700000000     0.732800000000     0.0596653  
C        C      0.106900000000     0.506900000000     0.644700000000     0.0596653  
C        C      0.556100000000     0.782900000000     0.391100000000     0.0596653  
C        C      0.481900000000     0.727900000000     0.247900000000     0.0596653  
C        C      0.460600000000     0.704200000000     0.318700000000     0.0596653  
C        C      0.355000000000     0.601600000000     0.318500000000     0.0596653  
C        C      0.611300000000     0.712300000000     0.671500000000     0.0596653  
C        C      0.528600000000     0.628800000000     0.713100000000     0.0596653  
C        C      0.556600000000     0.653800000000     0.791100000000     0.0596653  
C        C      0.421800000000     0.523800000000     0.671600000000     0.0596653  
C        C      0.141800000000     0.959000000000     0.145900000000     0.0596653  
C        C      0.025400000000     0.885000000000     0.145800000000     0.0596653  
C        C      0.061900000000     0.811300000000     0.044200000000     0.0596653  
C        C      0.379500000000     0.229500000000     0.964000000000     0.0596653  
C        C      0.394000000000     0.137000000000     0.984200000000     0.0596653  
C        C      0.239700000000     0.139700000000     0.021400000000     0.0596653  
C        C      0.239000000000     0.856200000000     0.913100000000     0.0596653  
C        C      0.251700000000     0.693900000000     0.918900000000     0.0596653  
C        C      0.282900000000     0.760300000000     0.990800000000     0.0596653  
C        C      0.401700000000     0.948100000000     0.182800000000     0.0596653  
C        C      0.510700000000     0.015100000000     0.232800000000     0.0596653  
C        C      0.506900000000     0.106900000000     0.144700000000     0.0596653  
C        C      0.782900000000     0.556100000000     0.891100000000     0.0596653  
C        C      0.727900000000     0.481900000000     0.747900000000     0.0596653  
C        C      0.704200000000     0.460600000000     0.818700000000     0.0596653  
C        C      0.601600000000     0.355000000000     0.818500000000     0.0596653  
C        C      0.712300000000     0.611300000000     0.171500000000     0.0596653  
C        C      0.628800000000     0.528600000000     0.213100000000     0.0596653  
C        C      0.653800000000     0.556600000000     0.291100000000     0.0596653  
C        C      0.523800000000     0.421800000000     0.171600000000     0.0596653  
C        C      0.041000000000     0.858200000000     0.354100000000     0.0596653  
C        C      0.115000000000     0.974600000000     0.354200000000     0.0596653  
C        C      0.188700000000     0.938100000000     0.455800000000     0.0596653  
C        C      0.770500000000     0.620500000000     0.536000000000     0.0596653  
C        C      0.863000000000     0.606000000000     0.515800000000     0.0596653  
C        C      0.860300000000     0.760300000000     0.478600000000     0.0596653  
C        C      0.143800000000     0.761000000000     0.586900000000     0.0596653  
C        C      0.306100000000     0.748300000000     0.581100000000     0.0596653  
C        C      0.239700000000     0.717100000000     0.509200000000     0.0596653  
C        C      0.051900000000     0.598300000000     0.317200000000     0.0596653  
C        C      0.984900000000     0.489300000000     0.267200000000     0.0596653  
C        C      0.893100000000     0.493100000000     0.355300000000     0.0596653  
C        C      0.443900000000     0.217100000000     0.608900000000     0.0596653  
C        C      0.518100000000     0.272100000000     0.752100000000     0.0596653  
C        C      0.539400000000     0.295800000000     0.681300000000     0.0596653  
C        C      0.645000000000     0.398400000000     0.681500000000     0.0596653  
C        C      0.388700000000     0.287700000000     0.328500000000     0.0596653  
C        C      0.471400000000     0.371200000000     0.286900000000     0.0596653  
C        C      0.443400000000     0.346200000000     0.208900000000     0.0596653  
C        C      0.578200000000     0.476200000000     0.328400000000     0.0596653  
N        N      0.025700000000     0.211300000000     0.919000000000    -0.246032   
N        N      0.833000000000     0.086400000000     0.919000000000    -0.246032   
N        N      0.720800000000     0.769800000000     0.013200000000    -0.246032   
N        N      0.693200000000     0.919800000000     0.977500000000    -0.246032   
N        N      0.777300000000     0.244500000000     0.131800000000    -0.246032   
N        N      0.723200000000     0.132600000000     0.011300000000    -0.246032   
N        N      0.604200000000     0.993600000000     0.875500000000    -0.246032   
N        N      0.421000000000     0.882000000000     0.791600000000    -0.246032   
N        N      0.788700000000     0.974300000000     0.581000000000    -0.246032   
N        N      0.913600000000     0.167000000000     0.581000000000    -0.246032   
N        N      0.230200000000     0.279200000000     0.486800000000    -0.246032   
N        N      0.080200000000     0.306800000000     0.522500000000    -0.246032   
N        N      0.755500000000     0.222700000000     0.368200000000    -0.246032   
N        N      0.867400000000     0.276800000000     0.488700000000    -0.246032   
N        N      0.006400000000     0.395800000000     0.624500000000    -0.246032   
N        N      0.118000000000     0.579000000000     0.708400000000    -0.246032   
N        N      0.974300000000     0.788700000000     0.081000000000    -0.246032   
N        N      0.167000000000     0.913600000000     0.081000000000    -0.246032   
N        N      0.279200000000     0.230200000000     0.986800000000    -0.246032   
N        N      0.306800000000     0.080200000000     0.022500000000    -0.246032   
N        N      0.222700000000     0.755500000000     0.868200000000    -0.246032   
N        N      0.276800000000     0.867400000000     0.988700000000    -0.246032   
N        N      0.395800000000     0.006400000000     0.124500000000    -0.246032   
N        N      0.579000000000     0.118000000000     0.208400000000    -0.246032   
N        N      0.211300000000     0.025700000000     0.419000000000    -0.246032   
N        N      0.086400000000     0.833000000000     0.419000000000    -0.246032   
N        N      0.769800000000     0.720800000000     0.513200000000    -0.246032   
N        N      0.919800000000     0.693200000000     0.477500000000    -0.246032   
N        N      0.244500000000     0.777300000000     0.631800000000    -0.246032   
N        N      0.132600000000     0.723200000000     0.511300000000    -0.246032   
N        N      0.993600000000     0.604200000000     0.375500000000    -0.246032   
N        N      0.882000000000     0.421000000000     0.291600000000    -0.246032   
O        O      0.133000000000     0.343400000000     0.108800000000    -0.275837   
O        O      0.247100000000     0.471100000000     0.047300000000    -0.275837   
O        O      0.213100000000     0.278300000000     0.794200000000    -0.275837   
O        O      0.297300000000     0.434300000000     0.897300000000    -0.275837   
O        O      0.656600000000     0.867000000000     0.391200000000    -0.275837   
O        O      0.528900000000     0.752900000000     0.452700000000    -0.275837   
O        O      0.721700000000     0.786900000000     0.705800000000    -0.275837   
O        O      0.565700000000     0.702700000000     0.602700000000    -0.275837   
O        O      0.867000000000     0.656600000000     0.891200000000    -0.275837   
O        O      0.752900000000     0.528900000000     0.952700000000    -0.275837   
O        O      0.786900000000     0.721700000000     0.205800000000    -0.275837   
O        O      0.702700000000     0.565700000000     0.102700000000    -0.275837   
O        O      0.343400000000     0.133000000000     0.608800000000    -0.275837   
O        O      0.471100000000     0.247100000000     0.547300000000    -0.275837   
O        O      0.278300000000     0.213100000000     0.294200000000    -0.275837   
O        O      0.434300000000     0.297300000000     0.397300000000    -0.275837   


