data_HAFQOW_original

_audit_creation_method RASPA-1.0
_audit_creation_date 2022-1-30
_audit_author_name 'Felipe Lopes de Oliveira <felipe.lopes.oliveira@ibm.com>'

_cell_length_a    6.6018
_cell_length_b    13.8911
_cell_length_c    15.954
_cell_angle_alpha 90
_cell_angle_beta  90
_cell_angle_gamma 91.699
_cell_volume      1462.44

_symmetry_cell_setting          triclinic
_symmetry_space_group_name_Hall 'P 1'
_symmetry_space_group_name_H-M  'P 1'
_symmetry_Int_Tables_number     1

_symmetry_equiv_pos_as_xyz 'x,y,z'

loop_
_atom_site_label
_atom_site_type_symbol
_atom_site_fract_x
_atom_site_fract_y
_atom_site_fract_z
_atom_site_charge
Al       Al     0.000000000000     0.000000000000     0.000000000000     7.51478    
Al       Al     0.500000000000     0.500000000000     0.500000000000     7.51478    
Al       Al     0.500000000000     0.000000000000     0.000000000000     7.51478    
Al       Al     0.000000000000     0.500000000000     0.500000000000     7.51478    
H        H      0.238130000000     0.885170000000     0.980400000000     0.258355   
H        H      0.567790000000     0.295230000000     0.690770000000     0.258355   
H        H      0.562650000000     0.192530000000     0.805030000000     0.258355   
H        H      0.962480000000     0.295190000000     0.691900000000     0.258355   
H        H      0.957030000000     0.192480000000     0.806160000000     0.258355   
H        H      0.261870000000     0.614830000000     0.480400000000     0.258355   
H        H      0.932210000000     0.204770000000     0.190770000000     0.258355   
H        H      0.937350000000     0.307470000000     0.305030000000     0.258355   
H        H      0.537520000000     0.204810000000     0.191900000000     0.258355   
H        H      0.542970000000     0.307520000000     0.306160000000     0.258355   
H        H      0.761870000000     0.114830000000     0.019600000000     0.258355   
H        H      0.432210000000     0.704770000000     0.309230000000     0.258355   
H        H      0.437350000000     0.807470000000     0.194970000000     0.258355   
H        H      0.037520000000     0.704810000000     0.308100000000     0.258355   
H        H      0.042970000000     0.807520000000     0.193840000000     0.258355   
H        H      0.738130000000     0.385170000000     0.519600000000     0.258355   
H        H      0.067790000000     0.795230000000     0.809230000000     0.258355   
H        H      0.062650000000     0.692530000000     0.694970000000     0.258355   
H        H      0.462480000000     0.795190000000     0.808100000000     0.258355   
H        H      0.457030000000     0.692480000000     0.693840000000     0.258355   
C        C      0.269300000000     0.376230000000     0.610000000000     0.256725   
C        C      0.265820000000     0.306950000000     0.681570000000     0.256725   
C        C      0.444940000000     0.275120000000     0.714370000000     0.256725   
C        C      0.256130000000     0.119690000000     0.892870000000     0.256725   
C        C      0.259310000000     0.182060000000     0.816680000000     0.256725   
C        C      0.441920000000     0.213180000000     0.782370000000     0.256725   
C        C      0.083210000000     0.275110000000     0.715060000000     0.256725   
C        C      0.079880000000     0.213170000000     0.783060000000     0.256725   
C        C      0.230700000000     0.123770000000     0.110000000000     0.256725   
C        C      0.234180000000     0.193050000000     0.181570000000     0.256725   
C        C      0.055060000000     0.224880000000     0.214370000000     0.256725   
C        C      0.243870000000     0.380310000000     0.392870000000     0.256725   
C        C      0.240690000000     0.317940000000     0.316680000000     0.256725   
C        C      0.058080000000     0.286820000000     0.282370000000     0.256725   
C        C      0.416790000000     0.224890000000     0.215060000000     0.256725   
C        C      0.420120000000     0.286830000000     0.283060000000     0.256725   
C        C      0.730700000000     0.623770000000     0.390000000000     0.256725   
C        C      0.734180000000     0.693050000000     0.318430000000     0.256725   
C        C      0.555060000000     0.724880000000     0.285630000000     0.256725   
C        C      0.743870000000     0.880310000000     0.107130000000     0.256725   
C        C      0.740690000000     0.817940000000     0.183320000000     0.256725   
C        C      0.558080000000     0.786820000000     0.217630000000     0.256725   
C        C      0.916790000000     0.724890000000     0.284940000000     0.256725   
C        C      0.920120000000     0.786830000000     0.216940000000     0.256725   
C        C      0.769300000000     0.876230000000     0.890000000000     0.256725   
C        C      0.765820000000     0.806950000000     0.818430000000     0.256725   
C        C      0.944940000000     0.775120000000     0.785630000000     0.256725   
C        C      0.756130000000     0.619690000000     0.607130000000     0.256725   
C        C      0.759310000000     0.682060000000     0.683320000000     0.256725   
C        C      0.941920000000     0.713180000000     0.717630000000     0.256725   
C        C      0.583210000000     0.775110000000     0.784940000000     0.256725   
C        C      0.579880000000     0.713170000000     0.716940000000     0.256725   
O        O      0.243580000000     0.941890000000     0.993110000000    -2.17207    
O        O      0.085630000000     0.096010000000     0.922610000000    -2.17207    
O        O      0.101210000000     0.401750000000     0.581830000000    -2.17207    
O        O      0.424220000000     0.093960000000     0.920740000000    -2.17207    
O        O      0.440250000000     0.403800000000     0.582700000000    -2.17207    
O        O      0.256420000000     0.558110000000     0.493110000000    -2.17207    
O        O      0.414370000000     0.403990000000     0.422610000000    -2.17207    
O        O      0.398790000000     0.098250000000     0.081830000000    -2.17207    
O        O      0.075780000000     0.406040000000     0.420740000000    -2.17207    
O        O      0.059750000000     0.096200000000     0.082700000000    -2.17207    
O        O      0.756420000000     0.058110000000     0.006890000000    -2.17207    
O        O      0.914370000000     0.903990000000     0.077390000000    -2.17207    
O        O      0.898790000000     0.598250000000     0.418170000000    -2.17207    
O        O      0.575780000000     0.906040000000     0.079260000000    -2.17207    
O        O      0.559750000000     0.596200000000     0.417300000000    -2.17207    
O        O      0.743580000000     0.441890000000     0.506890000000    -2.17207    
O        O      0.585630000000     0.596010000000     0.577390000000    -2.17207    
O        O      0.601210000000     0.901750000000     0.918170000000    -2.17207    
O        O      0.924220000000     0.593960000000     0.579260000000    -2.17207    
O        O      0.940250000000     0.903800000000     0.917300000000    -2.17207    


