data_HAJLUA_original

_audit_creation_method RASPA-1.0
_audit_creation_date 2022-1-29
_audit_author_name 'Felipe Lopes de Oliveira <felipe.lopes.oliveira@ibm.com>'

_cell_length_a    10.986
_cell_length_b    15.1094
_cell_length_c    15.1094
_cell_angle_alpha 114.324
_cell_angle_beta  104.026
_cell_angle_gamma 104.026
_cell_volume      2044.44

_symmetry_cell_setting          triclinic
_symmetry_space_group_name_Hall 'P 1'
_symmetry_space_group_name_H-M  'P 1'
_symmetry_Int_Tables_number     1

_symmetry_equiv_pos_as_xyz 'x,y,z'

loop_
_atom_site_label
_atom_site_type_symbol
_atom_site_fract_x
_atom_site_fract_y
_atom_site_fract_z
_atom_site_charge
Fe       Fe     0.500000000000     0.500000000000     0.500000000000     0.588927   
Fe       Fe     0.000000000000     0.000000000000     0.500000000000     0.588927   
Fe       Fe     0.000000000000     0.500000000000     0.000000000000     0.588927   
H        H      0.233000000000     0.468000000000     0.344800000000     0.226916   
H        H      0.477400000000     0.708000000000     0.687400000000     0.226916   
H        H      0.351900000000     0.730900000000     0.707100000000     0.226916   
H        H      0.445400000000     0.799300000000     0.676200000000     0.226916   
H        H      0.034300000000     0.470300000000     0.241700000000     0.226916   
H        H      0.043900000000     0.585700000000     0.275700000000     0.226916   
H        H      0.955400000000     0.518100000000     0.310000000000     0.226916   
H        H      0.026300000000     0.757600000000     0.711000000000     0.226916   
H        H      0.159600000000     0.736300000000     0.713400000000     0.226916   
H        H      0.018000000000     0.648300000000     0.628600000000     0.226916   
H        H      0.135000000000     0.855500000000     0.375200000000     0.226916   
H        H      0.127800000000     0.739700000000     0.330800000000     0.226916   
H        H      0.262800000000     0.834000000000     0.418600000000     0.226916   
H        H      0.991000000000     0.860500000000     0.628500000000     0.226916   
H        H      0.767000000000     0.532000000000     0.655200000000     0.226916   
H        H      0.522600000000     0.292000000000     0.312600000000     0.226916   
H        H      0.648100000000     0.269100000000     0.292900000000     0.226916   
H        H      0.554600000000     0.200700000000     0.323800000000     0.226916   
H        H      0.965700000000     0.529700000000     0.758300000000     0.226916   
H        H      0.956100000000     0.414300000000     0.724300000000     0.226916   
H        H      0.044600000000     0.481900000000     0.690000000000     0.226916   
H        H      0.973700000000     0.242400000000     0.289000000000     0.226916   
H        H      0.840400000000     0.263700000000     0.286600000000     0.226916   
H        H      0.982000000000     0.351700000000     0.371400000000     0.226916   
H        H      0.865000000000     0.144500000000     0.624800000000     0.226916   
H        H      0.872200000000     0.260300000000     0.669200000000     0.226916   
H        H      0.737200000000     0.166000000000     0.581400000000     0.226916   
H        H      0.009000000000     0.139500000000     0.371500000000     0.226916   
H        H      0.765000000000     0.876800000000     0.532000000000     0.226916   
H        H      0.769400000000     0.979400000000     0.292000000000     0.226916   
H        H      0.621000000000     0.976200000000     0.269100000000     0.226916   
H        H      0.646100000000     0.876900000000     0.200700000000     0.226916   
H        H      0.564000000000     0.771400000000     0.529700000000     0.226916   
H        H      0.458200000000     0.690000000000     0.414300000000     0.226916   
H        H      0.437300000000     0.791900000000     0.481900000000     0.226916   
H        H      0.268700000000     0.953400000000     0.242400000000     0.226916   
H        H      0.423300000000     0.977100000000     0.263700000000     0.226916   
H        H      0.369700000000     0.980300000000     0.351700000000     0.226916   
H        H      0.279500000000     0.519700000000     0.144500000000     0.226916   
H        H      0.388100000000     0.591100000000     0.260300000000     0.226916   
H        H      0.428800000000     0.584600000000     0.166000000000     0.226916   
H        H      0.130500000000     0.768000000000     0.139500000000     0.226916   
H        H      0.235000000000     0.123200000000     0.468000000000     0.226916   
H        H      0.230600000000     0.020600000000     0.708000000000     0.226916   
H        H      0.379000000000     0.023800000000     0.730900000000     0.226916   
H        H      0.353900000000     0.123100000000     0.799300000000     0.226916   
H        H      0.436000000000     0.228600000000     0.470300000000     0.226916   
H        H      0.541800000000     0.310000000000     0.585700000000     0.226916   
H        H      0.562700000000     0.208100000000     0.518100000000     0.226916   
H        H      0.731300000000     0.046600000000     0.757600000000     0.226916   
H        H      0.576700000000     0.022900000000     0.736300000000     0.226916   
H        H      0.630300000000     0.019700000000     0.648300000000     0.226916   
H        H      0.720500000000     0.480300000000     0.855500000000     0.226916   
H        H      0.611900000000     0.408900000000     0.739700000000     0.226916   
H        H      0.571200000000     0.415400000000     0.834000000000     0.226916   
H        H      0.869500000000     0.232000000000     0.860500000000     0.226916   
H        H      0.888200000000     0.655200000000     0.123200000000     0.226916   
H        H      0.790000000000     0.312600000000     0.020600000000     0.226916   
H        H      0.644800000000     0.292900000000     0.023800000000     0.226916   
H        H      0.769200000000     0.323800000000     0.123100000000     0.226916   
H        H      0.792600000000     0.758300000000     0.228600000000     0.226916   
H        H      0.768200000000     0.724300000000     0.310000000000     0.226916   
H        H      0.645400000000     0.690000000000     0.208100000000     0.226916   
H        H      0.315300000000     0.289000000000     0.046600000000     0.226916   
H        H      0.446200000000     0.286600000000     0.022900000000     0.226916   
H        H      0.389400000000     0.371400000000     0.019700000000     0.226916   
H        H      0.759800000000     0.624800000000     0.480300000000     0.226916   
H        H      0.797000000000     0.669200000000     0.408900000000     0.226916   
H        H      0.844200000000     0.581400000000     0.415400000000     0.226916   
H        H      0.362500000000     0.371500000000     0.232000000000     0.226916   
H        H      0.111800000000     0.344800000000     0.876800000000     0.226916   
H        H      0.210000000000     0.687400000000     0.979400000000     0.226916   
H        H      0.355200000000     0.707100000000     0.976200000000     0.226916   
H        H      0.230800000000     0.676200000000     0.876900000000     0.226916   
H        H      0.207400000000     0.241700000000     0.771400000000     0.226916   
H        H      0.231800000000     0.275700000000     0.690000000000     0.226916   
H        H      0.354600000000     0.310000000000     0.791900000000     0.226916   
H        H      0.684700000000     0.711000000000     0.953400000000     0.226916   
H        H      0.553800000000     0.713400000000     0.977100000000     0.226916   
H        H      0.610600000000     0.628600000000     0.980300000000     0.226916   
H        H      0.240200000000     0.375200000000     0.519700000000     0.226916   
H        H      0.203000000000     0.330800000000     0.591100000000     0.226916   
H        H      0.155800000000     0.418600000000     0.584600000000     0.226916   
H        H      0.637500000000     0.628500000000     0.768000000000     0.226916   
C        C      0.275460000000     0.264360000000     0.348820000000    -0.210342   
C        C      0.318900000000     0.655300000000     0.552600000000    -0.210342   
C        C      0.202110000000     0.660310000000     0.492420000000    -0.210342   
C        C      0.155800000000     0.573500000000     0.393500000000    -0.210342   
C        C      0.406100000000     0.729900000000     0.665800000000    -0.210342   
C        C      0.037000000000     0.533400000000     0.296800000000    -0.210342   
C        C      0.083800000000     0.763600000000     0.595800000000    -0.210342   
C        C      0.142290000000     0.739760000000     0.522410000000    -0.210342   
C        C      0.119500000000     0.800200000000     0.474600000000    -0.210342   
C        C      0.070800000000     0.722900000000     0.668600000000    -0.210342   
C        C      0.165200000000     0.807900000000     0.392500000000    -0.210342   
C        C      0.724540000000     0.735640000000     0.651180000000    -0.210342   
C        C      0.681100000000     0.344700000000     0.447400000000    -0.210342   
C        C      0.797890000000     0.339690000000     0.507580000000    -0.210342   
C        C      0.844200000000     0.426500000000     0.606500000000    -0.210342   
C        C      0.593900000000     0.270100000000     0.334200000000    -0.210342   
C        C      0.963000000000     0.466600000000     0.703200000000    -0.210342   
C        C      0.916200000000     0.236400000000     0.404200000000    -0.210342   
C        C      0.857710000000     0.260240000000     0.477590000000    -0.210342   
C        C      0.880500000000     0.199800000000     0.525400000000    -0.210342   
C        C      0.929200000000     0.277100000000     0.331400000000    -0.210342   
C        C      0.834800000000     0.192100000000     0.607500000000    -0.210342   
C        C      0.011100000000     0.084460000000     0.735640000000    -0.210342   
C        C      0.663600000000     0.897300000000     0.344700000000    -0.210342   
C        C      0.541800000000     0.832110000000     0.339690000000    -0.210342   
C        C      0.582300000000     0.820000000000     0.426500000000    -0.210342   
C        C      0.676200000000     0.935900000000     0.270100000000    -0.210342   
C        C      0.503600000000     0.763400000000     0.466600000000    -0.210342   
C        C      0.320200000000     0.832200000000     0.236400000000    -0.210342   
C        C      0.402530000000     0.782650000000     0.260240000000    -0.210342   
C        C      0.319300000000     0.674400000000     0.199800000000    -0.210342   
C        C      0.347900000000     0.945700000000     0.277100000000    -0.210342   
C        C      0.357300000000     0.584600000000     0.192100000000    -0.210342   
C        C      0.988900000000     0.915540000000     0.264360000000    -0.210342   
C        C      0.336400000000     0.102700000000     0.655300000000    -0.210342   
C        C      0.458200000000     0.167890000000     0.660310000000    -0.210342   
C        C      0.417700000000     0.180000000000     0.573500000000    -0.210342   
C        C      0.323800000000     0.064100000000     0.729900000000    -0.210342   
C        C      0.496400000000     0.236600000000     0.533400000000    -0.210342   
C        C      0.679800000000     0.167800000000     0.763600000000    -0.210342   
C        C      0.597470000000     0.217350000000     0.739760000000    -0.210342   
C        C      0.680700000000     0.325600000000     0.800200000000    -0.210342   
C        C      0.652100000000     0.054300000000     0.722900000000    -0.210342   
C        C      0.642700000000     0.415400000000     0.807900000000    -0.210342   
C        C      0.926640000000     0.651180000000     0.915540000000    -0.210342   
C        C      0.766300000000     0.447400000000     0.102700000000    -0.210342   
C        C      0.709690000000     0.507580000000     0.167890000000    -0.210342   
C        C      0.762300000000     0.606500000000     0.180000000000    -0.210342   
C        C      0.740300000000     0.334200000000     0.064100000000    -0.210342   
C        C      0.740200000000     0.703200000000     0.236600000000    -0.210342   
C        C      0.488000000000     0.404200000000     0.167800000000    -0.210342   
C        C      0.619880000000     0.477590000000     0.217350000000    -0.210342   
C        C      0.644900000000     0.525400000000     0.325600000000    -0.210342   
C        C      0.402200000000     0.331400000000     0.054300000000    -0.210342   
C        C      0.772700000000     0.607500000000     0.415400000000    -0.210342   
C        C      0.073360000000     0.348820000000     0.084460000000    -0.210342   
C        C      0.233700000000     0.552600000000     0.897300000000    -0.210342   
C        C      0.290310000000     0.492420000000     0.832110000000    -0.210342   
C        C      0.237700000000     0.393500000000     0.820000000000    -0.210342   
C        C      0.259700000000     0.665800000000     0.935900000000    -0.210342   
C        C      0.259800000000     0.296800000000     0.763400000000    -0.210342   
C        C      0.512000000000     0.595800000000     0.832200000000    -0.210342   
C        C      0.380120000000     0.522410000000     0.782650000000    -0.210342   
C        C      0.355100000000     0.474600000000     0.674400000000    -0.210342   
C        C      0.597800000000     0.668600000000     0.945700000000    -0.210342   
C        C      0.227300000000     0.392500000000     0.584600000000    -0.210342   
S        S      0.184200000000     0.139280000000     0.282470000000    -0.125138   
S        S      0.815800000000     0.860720000000     0.717530000000    -0.125138   
S        S      0.044920000000     0.143190000000     0.860720000000    -0.125138   
S        S      0.955080000000     0.856810000000     0.139280000000    -0.125138   
S        S      0.901730000000     0.717530000000     0.856810000000    -0.125138   
S        S      0.098270000000     0.282470000000     0.143190000000    -0.125138   
N        N      0.343770000000     0.352770000000     0.396340000000    -0.206477   
N        N      0.341730000000     0.571620000000     0.493870000000    -0.206477   
N        N      0.241210000000     0.524190000000     0.397840000000    -0.206477   
N        N      0.051030000000     0.857700000000     0.515290000000    -0.206477   
N        N      0.032160000000     0.833540000000     0.589340000000    -0.206477   
N        N      0.656230000000     0.647230000000     0.603660000000    -0.206477   
N        N      0.658270000000     0.428380000000     0.506130000000    -0.206477   
N        N      0.758790000000     0.475810000000     0.602160000000    -0.206477   
N        N      0.948970000000     0.142300000000     0.484710000000    -0.206477   
N        N      0.967840000000     0.166460000000     0.410660000000    -0.206477   
N        N      0.991000000000     0.043570000000     0.647230000000    -0.206477   
N        N      0.770110000000     0.922250000000     0.428380000000    -0.206477   
N        N      0.717020000000     0.873650000000     0.475810000000    -0.206477   
N        N      0.193330000000     0.657590000000     0.142300000000    -0.206477   
N        N      0.198620000000     0.755800000000     0.166460000000    -0.206477   
N        N      0.009000000000     0.956430000000     0.352770000000    -0.206477   
N        N      0.229890000000     0.077750000000     0.571620000000    -0.206477   
N        N      0.282980000000     0.126350000000     0.524190000000    -0.206477   
N        N      0.806670000000     0.342410000000     0.857700000000    -0.206477   
N        N      0.801380000000     0.244200000000     0.833540000000    -0.206477   
N        N      0.947430000000     0.603660000000     0.956430000000    -0.206477   
N        N      0.847860000000     0.506130000000     0.077750000000    -0.206477   
N        N      0.843370000000     0.602160000000     0.126350000000    -0.206477   
N        N      0.535740000000     0.484710000000     0.342410000000    -0.206477   
N        N      0.442820000000     0.410660000000     0.244200000000    -0.206477   
N        N      0.052570000000     0.396340000000     0.043570000000    -0.206477   
N        N      0.152140000000     0.493870000000     0.922250000000    -0.206477   
N        N      0.156630000000     0.397840000000     0.873650000000    -0.206477   
N        N      0.464260000000     0.515290000000     0.657590000000    -0.206477   
N        N      0.557180000000     0.589340000000     0.755800000000    -0.206477   


