data_HAJMEL_original

_audit_creation_method RASPA-1.0
_audit_creation_date 2022-1-31
_audit_author_name 'Felipe Lopes de Oliveira <felipe.lopes.oliveira@ibm.com>'

_cell_length_a    11.0215
_cell_length_b    15.1486
_cell_length_c    15.1486
_cell_angle_alpha 114.316
_cell_angle_beta  104.035
_cell_angle_gamma 104.035
_cell_volume      2061.54

_symmetry_cell_setting          triclinic
_symmetry_space_group_name_Hall 'P 1'
_symmetry_space_group_name_H-M  'P 1'
_symmetry_Int_Tables_number     1

_symmetry_equiv_pos_as_xyz 'x,y,z'

loop_
_atom_site_label
_atom_site_type_symbol
_atom_site_fract_x
_atom_site_fract_y
_atom_site_fract_z
_atom_site_charge
Fe       Fe     0.500000000000     0.500000000000     0.500000000000     0.600514   
Fe       Fe     0.000000000000     0.000000000000     0.500000000000     0.600514   
Fe       Fe     0.000000000000     0.500000000000     0.000000000000     0.600514   
H        H      0.477000000000     0.708200000000     0.687200000000     0.234303   
H        H      0.352100000000     0.731400000000     0.707200000000     0.234303   
H        H      0.445200000000     0.799400000000     0.676100000000     0.234303   
H        H      0.034500000000     0.471300000000     0.241600000000     0.234303   
H        H      0.044900000000     0.586500000000     0.275800000000     0.234303   
H        H      0.955600000000     0.519000000000     0.309400000000     0.234303   
H        H      0.026600000000     0.758300000000     0.711200000000     0.234303   
H        H      0.159700000000     0.737600000000     0.713900000000     0.234303   
H        H      0.018600000000     0.649500000000     0.629500000000     0.234303   
H        H      0.135400000000     0.855000000000     0.375400000000     0.234303   
H        H      0.127900000000     0.739500000000     0.331300000000     0.234303   
H        H      0.262700000000     0.833600000000     0.419000000000     0.234303   
H        H      0.990900000000     0.860600000000     0.628100000000     0.234303   
H        H      0.523000000000     0.291800000000     0.312800000000     0.234303   
H        H      0.647900000000     0.268600000000     0.292800000000     0.234303   
H        H      0.554800000000     0.200600000000     0.323900000000     0.234303   
H        H      0.965500000000     0.528700000000     0.758400000000     0.234303   
H        H      0.955100000000     0.413500000000     0.724200000000     0.234303   
H        H      0.044400000000     0.481000000000     0.690600000000     0.234303   
H        H      0.973400000000     0.241700000000     0.288800000000     0.234303   
H        H      0.840300000000     0.262400000000     0.286100000000     0.234303   
H        H      0.981400000000     0.350500000000     0.370500000000     0.234303   
H        H      0.864600000000     0.145000000000     0.624600000000     0.234303   
H        H      0.872100000000     0.260500000000     0.668700000000     0.234303   
H        H      0.737300000000     0.166400000000     0.581000000000     0.234303   
H        H      0.009100000000     0.139400000000     0.371900000000     0.234303   
H        H      0.768800000000     0.979000000000     0.291800000000     0.234303   
H        H      0.620700000000     0.975800000000     0.268600000000     0.234303   
H        H      0.645800000000     0.876700000000     0.200600000000     0.234303   
H        H      0.563200000000     0.770300000000     0.528700000000     0.234303   
H        H      0.458400000000     0.689300000000     0.413500000000     0.234303   
H        H      0.436600000000     0.790400000000     0.481000000000     0.234303   
H        H      0.268300000000     0.952900000000     0.241700000000     0.234303   
H        H      0.422100000000     0.976300000000     0.262400000000     0.234303   
H        H      0.369100000000     0.980000000000     0.350500000000     0.234303   
H        H      0.280400000000     0.520400000000     0.145000000000     0.234303   
H        H      0.388400000000     0.591800000000     0.260500000000     0.234303   
H        H      0.429100000000     0.585400000000     0.166400000000     0.234303   
H        H      0.130300000000     0.767500000000     0.139400000000     0.234303   
H        H      0.231200000000     0.021000000000     0.708200000000     0.234303   
H        H      0.379300000000     0.024200000000     0.731400000000     0.234303   
H        H      0.354200000000     0.123300000000     0.799400000000     0.234303   
H        H      0.436800000000     0.229700000000     0.471300000000     0.234303   
H        H      0.541600000000     0.310700000000     0.586500000000     0.234303   
H        H      0.563400000000     0.209600000000     0.519000000000     0.234303   
H        H      0.731700000000     0.047100000000     0.758300000000     0.234303   
H        H      0.577900000000     0.023700000000     0.737600000000     0.234303   
H        H      0.630900000000     0.020000000000     0.649500000000     0.234303   
H        H      0.719600000000     0.479600000000     0.855000000000     0.234303   
H        H      0.611600000000     0.408200000000     0.739500000000     0.234303   
H        H      0.570900000000     0.414600000000     0.833600000000     0.234303   
H        H      0.869700000000     0.232500000000     0.860600000000     0.234303   
H        H      0.789800000000     0.312800000000     0.021000000000     0.234303   
H        H      0.644900000000     0.292800000000     0.024200000000     0.234303   
H        H      0.769100000000     0.323900000000     0.123300000000     0.234303   
H        H      0.792900000000     0.758400000000     0.229700000000     0.234303   
H        H      0.769100000000     0.724200000000     0.310700000000     0.234303   
H        H      0.646200000000     0.690600000000     0.209600000000     0.234303   
H        H      0.315400000000     0.288800000000     0.047100000000     0.234303   
H        H      0.445800000000     0.286100000000     0.023700000000     0.234303   
H        H      0.389100000000     0.370500000000     0.020000000000     0.234303   
H        H      0.760000000000     0.624600000000     0.479600000000     0.234303   
H        H      0.796600000000     0.668700000000     0.408200000000     0.234303   
H        H      0.843700000000     0.581000000000     0.414600000000     0.234303   
H        H      0.362800000000     0.371900000000     0.232500000000     0.234303   
H        H      0.210200000000     0.687200000000     0.979000000000     0.234303   
H        H      0.355100000000     0.707200000000     0.975800000000     0.234303   
H        H      0.230900000000     0.676100000000     0.876700000000     0.234303   
H        H      0.207100000000     0.241600000000     0.770300000000     0.234303   
H        H      0.230900000000     0.275800000000     0.689300000000     0.234303   
H        H      0.353800000000     0.309400000000     0.790400000000     0.234303   
H        H      0.684600000000     0.711200000000     0.952900000000     0.234303   
H        H      0.554200000000     0.713900000000     0.976300000000     0.234303   
H        H      0.610900000000     0.629500000000     0.980000000000     0.234303   
H        H      0.240000000000     0.375400000000     0.520400000000     0.234303   
H        H      0.203400000000     0.331300000000     0.591800000000     0.234303   
H        H      0.156300000000     0.419000000000     0.585400000000     0.234303   
H        H      0.637200000000     0.628100000000     0.767500000000     0.234303   
C        C      0.276090000000     0.264040000000     0.349230000000    -0.20841    
C        C      0.318580000000     0.655450000000     0.552690000000    -0.20841    
C        C      0.202020000000     0.660140000000     0.492320000000    -0.20841    
C        C      0.155740000000     0.573840000000     0.393880000000    -0.20841    
C        C      0.405900000000     0.730200000000     0.665800000000    -0.20841    
C        C      0.037200000000     0.534200000000     0.296600000000    -0.20841    
C        C      0.083600000000     0.764100000000     0.595600000000    -0.20841    
C        C      0.141550000000     0.739700000000     0.522650000000    -0.20841    
C        C      0.119400000000     0.800310000000     0.475090000000    -0.20841    
C        C      0.071000000000     0.723700000000     0.669000000000    -0.20841    
C        C      0.165400000000     0.807800000000     0.392900000000    -0.20841    
C        C      0.723910000000     0.735960000000     0.650770000000    -0.20841    
C        C      0.681420000000     0.344550000000     0.447310000000    -0.20841    
C        C      0.797980000000     0.339860000000     0.507680000000    -0.20841    
C        C      0.844260000000     0.426160000000     0.606120000000    -0.20841    
C        C      0.594100000000     0.269800000000     0.334200000000    -0.20841    
C        C      0.962800000000     0.465800000000     0.703400000000    -0.20841    
C        C      0.916400000000     0.235900000000     0.404400000000    -0.20841    
C        C      0.858450000000     0.260300000000     0.477350000000    -0.20841    
C        C      0.880600000000     0.199690000000     0.524910000000    -0.20841    
C        C      0.929000000000     0.276300000000     0.331000000000    -0.20841    
C        C      0.834600000000     0.192200000000     0.607100000000    -0.20841    
C        C      0.012050000000     0.085190000000     0.735960000000    -0.20841    
C        C      0.663130000000     0.897240000000     0.344550000000    -0.20841    
C        C      0.541880000000     0.832180000000     0.339860000000    -0.20841    
C        C      0.581900000000     0.820040000000     0.426160000000    -0.20841    
C        C      0.675700000000     0.935600000000     0.269800000000    -0.20841    
C        C      0.503000000000     0.762400000000     0.465800000000    -0.20841    
C        C      0.319500000000     0.831500000000     0.235900000000    -0.20841    
C        C      0.401850000000     0.782950000000     0.260300000000    -0.20841    
C        C      0.319090000000     0.674780000000     0.199690000000    -0.20841    
C        C      0.347300000000     0.945300000000     0.276300000000    -0.20841    
C        C      0.357600000000     0.585100000000     0.192200000000    -0.20841    
C        C      0.987950000000     0.914810000000     0.264040000000    -0.20841    
C        C      0.336870000000     0.102760000000     0.655450000000    -0.20841    
C        C      0.458120000000     0.167820000000     0.660140000000    -0.20841    
C        C      0.418100000000     0.179960000000     0.573840000000    -0.20841    
C        C      0.324300000000     0.064400000000     0.730200000000    -0.20841    
C        C      0.497000000000     0.237600000000     0.534200000000    -0.20841    
C        C      0.680500000000     0.168500000000     0.764100000000    -0.20841    
C        C      0.598150000000     0.217050000000     0.739700000000    -0.20841    
C        C      0.680910000000     0.325220000000     0.800310000000    -0.20841    
C        C      0.652700000000     0.054700000000     0.723700000000    -0.20841    
C        C      0.642400000000     0.414900000000     0.807800000000    -0.20841    
C        C      0.926860000000     0.650770000000     0.914810000000    -0.20841    
C        C      0.765890000000     0.447310000000     0.102760000000    -0.20841    
C        C      0.709700000000     0.507680000000     0.167820000000    -0.20841    
C        C      0.761860000000     0.606120000000     0.179960000000    -0.20841    
C        C      0.740100000000     0.334200000000     0.064400000000    -0.20841    
C        C      0.740600000000     0.703400000000     0.237600000000    -0.20841    
C        C      0.488000000000     0.404400000000     0.168500000000    -0.20841    
C        C      0.618900000000     0.477350000000     0.217050000000    -0.20841    
C        C      0.644310000000     0.524910000000     0.325220000000    -0.20841    
C        C      0.402000000000     0.331000000000     0.054700000000    -0.20841    
C        C      0.772500000000     0.607100000000     0.414900000000    -0.20841    
C        C      0.073140000000     0.349230000000     0.085190000000    -0.20841    
C        C      0.234110000000     0.552690000000     0.897240000000    -0.20841    
C        C      0.290300000000     0.492320000000     0.832180000000    -0.20841    
C        C      0.238140000000     0.393880000000     0.820040000000    -0.20841    
C        C      0.259900000000     0.665800000000     0.935600000000    -0.20841    
C        C      0.259400000000     0.296600000000     0.762400000000    -0.20841    
C        C      0.512000000000     0.595600000000     0.831500000000    -0.20841    
C        C      0.381100000000     0.522650000000     0.782950000000    -0.20841    
C        C      0.355690000000     0.475090000000     0.674780000000    -0.20841    
C        C      0.598000000000     0.669000000000     0.945300000000    -0.20841    
C        C      0.227500000000     0.392900000000     0.585100000000    -0.20841    
S        S      0.184520000000     0.139370000000     0.282800000000    -0.111991   
S        S      0.815480000000     0.860630000000     0.717200000000    -0.111991   
S        S      0.045150000000     0.143430000000     0.860630000000    -0.111991   
S        S      0.954850000000     0.856570000000     0.139370000000    -0.111991   
S        S      0.901720000000     0.717200000000     0.856570000000    -0.111991   
S        S      0.098280000000     0.282800000000     0.143430000000    -0.111991   
N        N      0.343250000000     0.353410000000     0.396240000000    -0.188339   
N        N      0.341620000000     0.571800000000     0.493960000000    -0.188339   
N        N      0.241240000000     0.523850000000     0.397970000000    -0.188339   
N        N      0.050550000000     0.857820000000     0.515230000000    -0.188339   
N        N      0.031970000000     0.833740000000     0.589170000000    -0.188339   
N        N      0.656750000000     0.646590000000     0.603760000000    -0.188339   
N        N      0.658380000000     0.428200000000     0.506040000000    -0.188339   
N        N      0.758760000000     0.476150000000     0.602030000000    -0.188339   
N        N      0.949450000000     0.142180000000     0.484770000000    -0.188339   
N        N      0.968030000000     0.166260000000     0.410830000000    -0.188339   
N        N      0.989840000000     0.042830000000     0.646590000000    -0.188339   
N        N      0.769820000000     0.922160000000     0.428200000000    -0.188339   
N        N      0.717390000000     0.874120000000     0.476150000000    -0.188339   
N        N      0.192730000000     0.657410000000     0.142180000000    -0.188339   
N        N      0.198230000000     0.755430000000     0.166260000000    -0.188339   
N        N      0.010160000000     0.957170000000     0.353410000000    -0.188339   
N        N      0.230180000000     0.077840000000     0.571800000000    -0.188339   
N        N      0.282610000000     0.125880000000     0.523850000000    -0.188339   
N        N      0.807270000000     0.342590000000     0.857820000000    -0.188339   
N        N      0.801770000000     0.244570000000     0.833740000000    -0.188339   
N        N      0.947010000000     0.603760000000     0.957170000000    -0.188339   
N        N      0.847660000000     0.506040000000     0.077840000000    -0.188339   
N        N      0.843270000000     0.602030000000     0.125880000000    -0.188339   
N        N      0.535320000000     0.484770000000     0.342590000000    -0.188339   
N        N      0.442800000000     0.410830000000     0.244570000000    -0.188339   
N        N      0.052990000000     0.396240000000     0.042830000000    -0.188339   
N        N      0.152340000000     0.493960000000     0.922160000000    -0.188339   
N        N      0.156730000000     0.397970000000     0.874120000000    -0.188339   
N        N      0.464680000000     0.515230000000     0.657410000000    -0.188339   
N        N      0.557200000000     0.589170000000     0.755430000000    -0.188339   


