data_HAXJEX_original

_audit_creation_method RASPA-1.0
_audit_creation_date 2022-1-28
_audit_author_name 'Felipe Lopes de Oliveira <felipe.lopes.oliveira@ibm.com>'

_cell_length_a    11.0192
_cell_length_b    11.0192
_cell_length_c    17.0388
_cell_angle_alpha 91.6539
_cell_angle_beta  91.6539
_cell_angle_gamma 90.6677
_cell_volume      2067.01

_symmetry_cell_setting          triclinic
_symmetry_space_group_name_Hall 'P 1'
_symmetry_space_group_name_H-M  'P 1'
_symmetry_Int_Tables_number     1

_symmetry_equiv_pos_as_xyz 'x,y,z'

loop_
_atom_site_label
_atom_site_type_symbol
_atom_site_fract_x
_atom_site_fract_y
_atom_site_fract_z
_atom_site_charge
Zn       Zn     0.462980000000     0.656360000000     0.817430000000     0.449134   
Zn       Zn     0.815510000000     0.302490000000     0.174820000000     0.449134   
Zn       Zn     0.343640000000     0.537020000000     0.682570000000     0.449134   
Zn       Zn     0.697510000000     0.184490000000     0.325180000000     0.449134   
Zn       Zn     0.537020000000     0.343640000000     0.182570000000     0.449134   
Zn       Zn     0.184490000000     0.697510000000     0.825180000000     0.449134   
Zn       Zn     0.656360000000     0.462980000000     0.317430000000     0.449134   
Zn       Zn     0.302490000000     0.815510000000     0.674820000000     0.449134   
H        H      0.560300000000     0.651700000000     0.037100000000     0.0525466  
H        H      0.694400000000     0.823000000000     0.231800000000     0.0525466  
H        H      0.678200000000     0.995400000000     0.029400000000     0.0525466  
H        H      0.007200000000     0.792000000000     0.127700000000     0.0525466  
H        H      0.922700000000     0.767300000000     0.984500000000     0.0525466  
H        H      0.672400000000     0.259000000000     0.882300000000     0.0525466  
H        H      0.724900000000     0.453500000000     0.851900000000     0.0525466  
H        H      0.827900000000     0.651500000000     0.891900000000     0.0525466  
H        H      0.031300000000     0.710700000000     0.248200000000     0.0525466  
H        H      0.706200000000     0.196600000000     0.007200000000     0.0525466  
H        H      0.961500000000     0.516300000000     0.268900000000     0.0525466  
H        H      0.348300000000     0.439700000000     0.462900000000     0.0525466  
H        H      0.177000000000     0.305600000000     0.268200000000     0.0525466  
H        H      0.004600000000     0.321800000000     0.470600000000     0.0525466  
H        H      0.208000000000     0.992800000000     0.372300000000     0.0525466  
H        H      0.232700000000     0.077300000000     0.515500000000     0.0525466  
H        H      0.741000000000     0.327600000000     0.617700000000     0.0525466  
H        H      0.546500000000     0.275100000000     0.648100000000     0.0525466  
H        H      0.348500000000     0.172100000000     0.608100000000     0.0525466  
H        H      0.289300000000     0.968700000000     0.251800000000     0.0525466  
H        H      0.803400000000     0.293800000000     0.492800000000     0.0525466  
H        H      0.483700000000     0.038500000000     0.231100000000     0.0525466  
H        H      0.439700000000     0.348300000000     0.962900000000     0.0525466  
H        H      0.305600000000     0.177000000000     0.768200000000     0.0525466  
H        H      0.321800000000     0.004600000000     0.970600000000     0.0525466  
H        H      0.992800000000     0.208000000000     0.872300000000     0.0525466  
H        H      0.077300000000     0.232700000000     0.015500000000     0.0525466  
H        H      0.327600000000     0.741000000000     0.117700000000     0.0525466  
H        H      0.275100000000     0.546500000000     0.148100000000     0.0525466  
H        H      0.172100000000     0.348500000000     0.108100000000     0.0525466  
H        H      0.968700000000     0.289300000000     0.751800000000     0.0525466  
H        H      0.293800000000     0.803400000000     0.992800000000     0.0525466  
H        H      0.038500000000     0.483700000000     0.731100000000     0.0525466  
H        H      0.651700000000     0.560300000000     0.537100000000     0.0525466  
H        H      0.823000000000     0.694400000000     0.731800000000     0.0525466  
H        H      0.995400000000     0.678200000000     0.529400000000     0.0525466  
H        H      0.792000000000     0.007200000000     0.627700000000     0.0525466  
H        H      0.767300000000     0.922700000000     0.484500000000     0.0525466  
H        H      0.259000000000     0.672400000000     0.382300000000     0.0525466  
H        H      0.453500000000     0.724900000000     0.351900000000     0.0525466  
H        H      0.651500000000     0.827900000000     0.391900000000     0.0525466  
H        H      0.710700000000     0.031300000000     0.748200000000     0.0525466  
H        H      0.196600000000     0.706200000000     0.507200000000     0.0525466  
H        H      0.516300000000     0.961500000000     0.768900000000     0.0525466  
C        C      0.692800000000     0.927000000000     0.137200000000     0.0361983  
C        C      0.594200000000     0.720800000000     0.061900000000     0.0361983  
C        C      0.737700000000     0.039100000000     0.178700000000     0.0361983  
C        C      0.611700000000     0.823900000000     0.019600000000     0.0361983  
C        C      0.674400000000     0.823200000000     0.178400000000     0.0361983  
C        C      0.575800000000     0.823800000000     0.933200000000     0.0361983  
C        C      0.627000000000     0.719200000000     0.141700000000     0.0361983  
C        C      0.663300000000     0.926300000000     0.057800000000     0.0361983  
C        C      0.610800000000     0.603600000000     0.184300000000     0.0361983  
C        C      0.978000000000     0.714200000000     0.136400000000     0.0361983  
C        C      0.896700000000     0.689700000000     0.996700000000     0.0361983  
C        C      0.708600000000     0.311400000000     0.920100000000     0.0361983  
C        C      0.741300000000     0.425900000000     0.902200000000     0.0361983  
C        C      0.840200000000     0.621000000000     0.941700000000     0.0361983  
C        C      0.992800000000     0.666200000000     0.207400000000     0.0361983  
C        C      0.798000000000     0.501600000000     0.956800000000     0.0361983  
C        C      0.918600000000     0.647000000000     0.074800000000     0.0361983  
C        C      0.730300000000     0.274900000000     0.995000000000     0.0361983  
C        C      0.876700000000     0.530500000000     0.092100000000     0.0361983  
C        C      0.949500000000     0.548700000000     0.219500000000     0.0361983  
C        C      0.817500000000     0.456700000000     0.032600000000     0.0361983  
C        C      0.073000000000     0.307200000000     0.362800000000     0.0361983  
C        C      0.279200000000     0.405800000000     0.438100000000     0.0361983  
C        C      0.960900000000     0.262300000000     0.321300000000     0.0361983  
C        C      0.176100000000     0.388300000000     0.480400000000     0.0361983  
C        C      0.176800000000     0.325600000000     0.321600000000     0.0361983  
C        C      0.176200000000     0.424200000000     0.566800000000     0.0361983  
C        C      0.280800000000     0.373000000000     0.358300000000     0.0361983  
C        C      0.073700000000     0.336700000000     0.442200000000     0.0361983  
C        C      0.396400000000     0.389200000000     0.315700000000     0.0361983  
C        C      0.285800000000     0.022000000000     0.363600000000     0.0361983  
C        C      0.310300000000     0.103300000000     0.503300000000     0.0361983  
C        C      0.688600000000     0.291400000000     0.579900000000     0.0361983  
C        C      0.574100000000     0.258700000000     0.597800000000     0.0361983  
C        C      0.379000000000     0.159800000000     0.558300000000     0.0361983  
C        C      0.333800000000     0.007200000000     0.292600000000     0.0361983  
C        C      0.498400000000     0.202000000000     0.543200000000     0.0361983  
C        C      0.353000000000     0.081400000000     0.425200000000     0.0361983  
C        C      0.725100000000     0.269700000000     0.505000000000     0.0361983  
C        C      0.469500000000     0.123300000000     0.407900000000     0.0361983  
C        C      0.451300000000     0.050500000000     0.280500000000     0.0361983  
C        C      0.543300000000     0.182500000000     0.467400000000     0.0361983  
C        C      0.307200000000     0.073000000000     0.862800000000     0.0361983  
C        C      0.405800000000     0.279200000000     0.938100000000     0.0361983  
C        C      0.262300000000     0.960900000000     0.821300000000     0.0361983  
C        C      0.388300000000     0.176100000000     0.980400000000     0.0361983  
C        C      0.325600000000     0.176800000000     0.821600000000     0.0361983  
C        C      0.424200000000     0.176200000000     0.066800000000     0.0361983  
C        C      0.373000000000     0.280800000000     0.858300000000     0.0361983  
C        C      0.336700000000     0.073700000000     0.942200000000     0.0361983  
C        C      0.389200000000     0.396400000000     0.815700000000     0.0361983  
C        C      0.022000000000     0.285800000000     0.863600000000     0.0361983  
C        C      0.103300000000     0.310300000000     0.003300000000     0.0361983  
C        C      0.291400000000     0.688600000000     0.079900000000     0.0361983  
C        C      0.258700000000     0.574100000000     0.097800000000     0.0361983  
C        C      0.159800000000     0.379000000000     0.058300000000     0.0361983  
C        C      0.007200000000     0.333800000000     0.792600000000     0.0361983  
C        C      0.202000000000     0.498400000000     0.043200000000     0.0361983  
C        C      0.081400000000     0.353000000000     0.925200000000     0.0361983  
C        C      0.269700000000     0.725100000000     0.005000000000     0.0361983  
C        C      0.123300000000     0.469500000000     0.907900000000     0.0361983  
C        C      0.050500000000     0.451300000000     0.780500000000     0.0361983  
C        C      0.182500000000     0.543300000000     0.967400000000     0.0361983  
C        C      0.927000000000     0.692800000000     0.637200000000     0.0361983  
C        C      0.720800000000     0.594200000000     0.561900000000     0.0361983  
C        C      0.039100000000     0.737700000000     0.678700000000     0.0361983  
C        C      0.823900000000     0.611700000000     0.519600000000     0.0361983  
C        C      0.823200000000     0.674400000000     0.678400000000     0.0361983  
C        C      0.823800000000     0.575800000000     0.433200000000     0.0361983  
C        C      0.719200000000     0.627000000000     0.641700000000     0.0361983  
C        C      0.926300000000     0.663300000000     0.557800000000     0.0361983  
C        C      0.603600000000     0.610800000000     0.684300000000     0.0361983  
C        C      0.714200000000     0.978000000000     0.636400000000     0.0361983  
C        C      0.689700000000     0.896700000000     0.496700000000     0.0361983  
C        C      0.311400000000     0.708600000000     0.420100000000     0.0361983  
C        C      0.425900000000     0.741300000000     0.402200000000     0.0361983  
C        C      0.621000000000     0.840200000000     0.441700000000     0.0361983  
C        C      0.666200000000     0.992800000000     0.707400000000     0.0361983  
C        C      0.501600000000     0.798000000000     0.456800000000     0.0361983  
C        C      0.647000000000     0.918600000000     0.574800000000     0.0361983  
C        C      0.274900000000     0.730300000000     0.495000000000     0.0361983  
C        C      0.530500000000     0.876700000000     0.592100000000     0.0361983  
C        C      0.548700000000     0.949500000000     0.719500000000     0.0361983  
C        C      0.456700000000     0.817500000000     0.532600000000     0.0361983  
N        N      0.892800000000     0.481800000000     0.164400000000    -0.1429     
N        N      0.783300000000     0.343700000000     0.051600000000    -0.1429     
N        N      0.518200000000     0.107200000000     0.335600000000    -0.1429     
N        N      0.656300000000     0.216700000000     0.448400000000    -0.1429     
N        N      0.107200000000     0.518200000000     0.835600000000    -0.1429     
N        N      0.216700000000     0.656300000000     0.948400000000    -0.1429     
N        N      0.481800000000     0.892800000000     0.664400000000    -0.1429     
N        N      0.343700000000     0.783300000000     0.551600000000    -0.1429     
O        O      0.500400000000     0.738000000000     0.913310000000    -0.3001     
O        O      0.616600000000     0.899000000000     0.890700000000    -0.3001     
O        O      0.776400000000     0.125400000000     0.139140000000    -0.3001     
O        O      0.735900000000     0.042300000000     0.252960000000    -0.3001     
O        O      0.572100000000     0.511500000000     0.146450000000    -0.3001     
O        O      0.639200000000     0.609200000000     0.256640000000    -0.3001     
O        O      0.262000000000     0.499600000000     0.586690000000    -0.3001     
O        O      0.101000000000     0.383400000000     0.609300000000    -0.3001     
O        O      0.874600000000     0.223600000000     0.360860000000    -0.3001     
O        O      0.957700000000     0.264100000000     0.247040000000    -0.3001     
O        O      0.488500000000     0.427900000000     0.353550000000    -0.3001     
O        O      0.390800000000     0.360800000000     0.243360000000    -0.3001     
O        O      0.499600000000     0.262000000000     0.086690000000    -0.3001     
O        O      0.383400000000     0.101000000000     0.109300000000    -0.3001     
O        O      0.223600000000     0.874600000000     0.860860000000    -0.3001     
O        O      0.264100000000     0.957700000000     0.747040000000    -0.3001     
O        O      0.427900000000     0.488500000000     0.853550000000    -0.3001     
O        O      0.360800000000     0.390800000000     0.743360000000    -0.3001     
O        O      0.738000000000     0.500400000000     0.413310000000    -0.3001     
O        O      0.899000000000     0.616600000000     0.390700000000    -0.3001     
O        O      0.125400000000     0.776400000000     0.639140000000    -0.3001     
O        O      0.042300000000     0.735900000000     0.752960000000    -0.3001     
O        O      0.511500000000     0.572100000000     0.646450000000    -0.3001     
O        O      0.609200000000     0.639200000000     0.756640000000    -0.3001     
O        O      0.319700000000     0.680300000000     0.750000000000    -0.3001     
O        O      0.680300000000     0.319700000000     0.250000000000    -0.3001     


