data_HEBTEP_original

_audit_creation_method RASPA-1.0
_audit_creation_date 2022-1-31
_audit_author_name 'Felipe Lopes de Oliveira <felipe.lopes.oliveira@ibm.com>'

_cell_length_a    7.336
_cell_length_b    11.316
_cell_length_c    17.653
_cell_angle_alpha 90
_cell_angle_beta  90.594
_cell_angle_gamma 90
_cell_volume      1465.37

_symmetry_cell_setting          triclinic
_symmetry_space_group_name_Hall 'P 1'
_symmetry_space_group_name_H-M  'P 1'
_symmetry_Int_Tables_number     1

_symmetry_equiv_pos_as_xyz 'x,y,z'

loop_
_atom_site_label
_atom_site_type_symbol
_atom_site_fract_x
_atom_site_fract_y
_atom_site_fract_z
_atom_site_charge
Zn       Zn     0.500000000000     0.500000000000     0.000000000000     0.440854   
Zn       Zn     0.500000000000     0.000000000000     0.500000000000     0.440854   
Zn       Zn     0.000000000000     0.500000000000     0.000000000000     0.440854   
Zn       Zn     0.000000000000     0.000000000000     0.500000000000     0.440854   
H        H      0.518000000000     0.312000000000     0.793800000000     0.0609628  
H        H      0.503000000000     0.203000000000     0.677700000000     0.0609628  
H        H      0.962000000000     0.510300000000     0.808900000000     0.0609628  
H        H      0.712000000000     0.525000000000     0.731800000000     0.0609628  
H        H      0.684000000000     0.410800000000     0.619500000000     0.0609628  
H        H      0.928000000000     0.298000000000     0.582000000000     0.0609628  
H        H      0.482000000000     0.812000000000     0.706200000000     0.0609628  
H        H      0.497000000000     0.703000000000     0.822300000000     0.0609628  
H        H      0.038000000000     0.010300000000     0.691100000000     0.0609628  
H        H      0.288000000000     0.025000000000     0.768200000000     0.0609628  
H        H      0.316000000000     0.910800000000     0.880500000000     0.0609628  
H        H      0.072000000000     0.798000000000     0.918000000000     0.0609628  
H        H      0.482000000000     0.688000000000     0.206200000000     0.0609628  
H        H      0.497000000000     0.797000000000     0.322300000000     0.0609628  
H        H      0.038000000000     0.489700000000     0.191100000000     0.0609628  
H        H      0.288000000000     0.475000000000     0.268200000000     0.0609628  
H        H      0.316000000000     0.589200000000     0.380500000000     0.0609628  
H        H      0.072000000000     0.702000000000     0.418000000000     0.0609628  
H        H      0.518000000000     0.188000000000     0.293800000000     0.0609628  
H        H      0.503000000000     0.297000000000     0.177700000000     0.0609628  
H        H      0.962000000000     0.989700000000     0.308900000000     0.0609628  
H        H      0.712000000000     0.975000000000     0.231800000000     0.0609628  
H        H      0.684000000000     0.089200000000     0.119500000000     0.0609628  
H        H      0.928000000000     0.202000000000     0.082000000000     0.0609628  
C        C      0.263500000000     0.377490000000     0.789460000000     0.0299401  
C        C      0.092200000000     0.325610000000     0.673410000000     0.0299401  
C        C      0.101800000000     0.388510000000     0.743240000000     0.0299401  
C        C      0.400500000000     0.253590000000     0.693940000000     0.0299401  
C        C      0.233600000000     0.170640000000     0.584480000000     0.0299401  
C        C      0.273700000000     0.425250000000     0.869280000000     0.0299401  
C        C      0.243900000000     0.254330000000     0.651130000000     0.0299401  
C        C      0.932800000000     0.339500000000     0.627390000000     0.0299401  
C        C      0.409700000000     0.315540000000     0.762970000000     0.0299401  
C        C      0.954700000000     0.463800000000     0.763260000000     0.0299401  
C        C      0.794300000000     0.410900000000     0.649310000000     0.0299401  
C        C      0.805000000000     0.474300000000     0.717390000000     0.0299401  
C        C      0.736500000000     0.877490000000     0.710540000000     0.0299401  
C        C      0.907800000000     0.825610000000     0.826590000000     0.0299401  
C        C      0.898200000000     0.888510000000     0.756760000000     0.0299401  
C        C      0.599500000000     0.753590000000     0.806060000000     0.0299401  
C        C      0.766400000000     0.670640000000     0.915520000000     0.0299401  
C        C      0.726300000000     0.925250000000     0.630720000000     0.0299401  
C        C      0.756100000000     0.754330000000     0.848870000000     0.0299401  
C        C      0.067200000000     0.839500000000     0.872610000000     0.0299401  
C        C      0.590300000000     0.815540000000     0.737030000000     0.0299401  
C        C      0.045300000000     0.963800000000     0.736740000000     0.0299401  
C        C      0.205700000000     0.910900000000     0.850690000000     0.0299401  
C        C      0.195000000000     0.974300000000     0.782610000000     0.0299401  
C        C      0.736500000000     0.622510000000     0.210540000000     0.0299401  
C        C      0.907800000000     0.674390000000     0.326590000000     0.0299401  
C        C      0.898200000000     0.611490000000     0.256760000000     0.0299401  
C        C      0.599500000000     0.746410000000     0.306060000000     0.0299401  
C        C      0.766400000000     0.829360000000     0.415520000000     0.0299401  
C        C      0.726300000000     0.574750000000     0.130720000000     0.0299401  
C        C      0.756100000000     0.745670000000     0.348870000000     0.0299401  
C        C      0.067200000000     0.660500000000     0.372610000000     0.0299401  
C        C      0.590300000000     0.684460000000     0.237030000000     0.0299401  
C        C      0.045300000000     0.536200000000     0.236740000000     0.0299401  
C        C      0.205700000000     0.589100000000     0.350690000000     0.0299401  
C        C      0.195000000000     0.525700000000     0.282610000000     0.0299401  
C        C      0.263500000000     0.122510000000     0.289460000000     0.0299401  
C        C      0.092200000000     0.174390000000     0.173410000000     0.0299401  
C        C      0.101800000000     0.111490000000     0.243240000000     0.0299401  
C        C      0.400500000000     0.246410000000     0.193940000000     0.0299401  
C        C      0.233600000000     0.329360000000     0.084480000000     0.0299401  
C        C      0.273700000000     0.074750000000     0.369280000000     0.0299401  
C        C      0.243900000000     0.245670000000     0.151130000000     0.0299401  
C        C      0.932800000000     0.160500000000     0.127390000000     0.0299401  
C        C      0.409700000000     0.184460000000     0.262970000000     0.0299401  
C        C      0.954700000000     0.036200000000     0.263260000000     0.0299401  
C        C      0.794300000000     0.089100000000     0.149310000000     0.0299401  
C        C      0.805000000000     0.025700000000     0.217390000000     0.0299401  
O        O      0.131950000000     0.417780000000     0.908460000000    -0.291478   
O        O      0.425960000000     0.463430000000     0.891980000000    -0.291478   
O        O      0.375680000000     0.153890000000     0.547030000000    -0.291478   
O        O      0.082890000000     0.120680000000     0.574350000000    -0.291478   
O        O      0.868050000000     0.917780000000     0.591540000000    -0.291478   
O        O      0.574040000000     0.963430000000     0.608020000000    -0.291478   
O        O      0.624320000000     0.653890000000     0.952970000000    -0.291478   
O        O      0.917110000000     0.620680000000     0.925650000000    -0.291478   
O        O      0.868050000000     0.582220000000     0.091540000000    -0.291478   
O        O      0.574040000000     0.536570000000     0.108020000000    -0.291478   
O        O      0.624320000000     0.846110000000     0.452970000000    -0.291478   
O        O      0.917110000000     0.879320000000     0.425650000000    -0.291478   
O        O      0.131950000000     0.082220000000     0.408460000000    -0.291478   
O        O      0.425960000000     0.036570000000     0.391980000000    -0.291478   
O        O      0.375680000000     0.346110000000     0.047030000000    -0.291478   
O        O      0.082890000000     0.379320000000     0.074350000000    -0.291478   


