data_HEBZAR_original

_audit_creation_method RASPA-1.0
_audit_creation_date 2022-1-30
_audit_author_name 'Felipe Lopes de Oliveira <felipe.lopes.oliveira@ibm.com>'

_cell_length_a    17.8954
_cell_length_b    17.8954
_cell_length_c    18.625
_cell_angle_alpha 90
_cell_angle_beta  90
_cell_angle_gamma 120
_cell_volume      5165.47

_symmetry_cell_setting          triclinic
_symmetry_space_group_name_Hall 'P 1'
_symmetry_space_group_name_H-M  'P 1'
_symmetry_Int_Tables_number     1

_symmetry_equiv_pos_as_xyz 'x,y,z'

loop_
_atom_site_label
_atom_site_type_symbol
_atom_site_fract_x
_atom_site_fract_y
_atom_site_fract_z
_atom_site_charge
Zn       Zn     0.657960000000     0.044550000000     0.289610000000     0.429499   
Zn       Zn     0.955450000000     0.613410000000     0.289610000000     0.429499   
Zn       Zn     0.386590000000     0.342040000000     0.289610000000     0.429499   
Zn       Zn     0.324627000000     0.377883000000     0.622943000000     0.429499   
Zn       Zn     0.622117000000     0.946743000000     0.622943000000     0.429499   
Zn       Zn     0.053257000000     0.675373000000     0.622943000000     0.429499   
Zn       Zn     0.991293000000     0.711217000000     0.956277000000     0.429499   
Zn       Zn     0.288783000000     0.280077000000     0.956277000000     0.429499   
Zn       Zn     0.719923000000     0.008707000000     0.956277000000     0.429499   
Zn       Zn     0.342040000000     0.955450000000     0.710390000000     0.429499   
Zn       Zn     0.044550000000     0.386590000000     0.710390000000     0.429499   
Zn       Zn     0.613410000000     0.657960000000     0.710390000000     0.429499   
Zn       Zn     0.675373000000     0.622117000000     0.377057000000     0.429499   
Zn       Zn     0.377883000000     0.053257000000     0.377057000000     0.429499   
Zn       Zn     0.946743000000     0.324627000000     0.377057000000     0.429499   
Zn       Zn     0.008707000000     0.288783000000     0.043723000000     0.429499   
Zn       Zn     0.711217000000     0.719923000000     0.043723000000     0.429499   
Zn       Zn     0.280077000000     0.991293000000     0.043723000000     0.429499   
H        H      0.695000000000     0.815000000000     0.183000000000     0.213094   
H        H      0.185000000000     0.880000000000     0.183000000000     0.213094   
H        H      0.120000000000     0.305000000000     0.183000000000     0.213094   
H        H      0.361667000000     0.148333000000     0.516333000000     0.213094   
H        H      0.851667000000     0.213333000000     0.516333000000     0.213094   
H        H      0.786667000000     0.638333000000     0.516333000000     0.213094   
H        H      0.028333000000     0.481667000000     0.849667000000     0.213094   
H        H      0.518333000000     0.546667000000     0.849667000000     0.213094   
H        H      0.453333000000     0.971667000000     0.849667000000     0.213094   
H        H      0.305000000000     0.185000000000     0.817000000000     0.213094   
H        H      0.815000000000     0.120000000000     0.817000000000     0.213094   
H        H      0.880000000000     0.695000000000     0.817000000000     0.213094   
H        H      0.638333000000     0.851667000000     0.483667000000     0.213094   
H        H      0.148333000000     0.786667000000     0.483667000000     0.213094   
H        H      0.213333000000     0.361667000000     0.483667000000     0.213094   
H        H      0.971667000000     0.518333000000     0.150333000000     0.213094   
H        H      0.481667000000     0.453333000000     0.150333000000     0.213094   
H        H      0.546667000000     0.028333000000     0.150333000000     0.213094   
H        H      0.674000000000     0.808000000000     0.266000000000     0.213094   
H        H      0.192000000000     0.866000000000     0.266000000000     0.213094   
H        H      0.134000000000     0.326000000000     0.266000000000     0.213094   
H        H      0.340667000000     0.141333000000     0.599333000000     0.213094   
H        H      0.858667000000     0.199333000000     0.599333000000     0.213094   
H        H      0.800667000000     0.659333000000     0.599333000000     0.213094   
H        H      0.007333000000     0.474667000000     0.932667000000     0.213094   
H        H      0.525333000000     0.532667000000     0.932667000000     0.213094   
H        H      0.467333000000     0.992667000000     0.932667000000     0.213094   
H        H      0.326000000000     0.192000000000     0.734000000000     0.213094   
H        H      0.808000000000     0.134000000000     0.734000000000     0.213094   
H        H      0.866000000000     0.674000000000     0.734000000000     0.213094   
H        H      0.659333000000     0.858667000000     0.400667000000     0.213094   
H        H      0.141333000000     0.800667000000     0.400667000000     0.213094   
H        H      0.199333000000     0.340667000000     0.400667000000     0.213094   
H        H      0.992667000000     0.525333000000     0.067333000000     0.213094   
H        H      0.474667000000     0.467333000000     0.067333000000     0.213094   
H        H      0.532667000000     0.007333000000     0.067333000000     0.213094   
H        H      0.735000000000     0.869000000000     0.965000000000     0.213094   
H        H      0.131000000000     0.866000000000     0.965000000000     0.213094   
H        H      0.134000000000     0.265000000000     0.965000000000     0.213094   
H        H      0.401667000000     0.202333000000     0.298333000000     0.213094   
H        H      0.797667000000     0.199333000000     0.298333000000     0.213094   
H        H      0.800667000000     0.598333000000     0.298333000000     0.213094   
H        H      0.068333000000     0.535667000000     0.631667000000     0.213094   
H        H      0.464333000000     0.532667000000     0.631667000000     0.213094   
H        H      0.467333000000     0.931667000000     0.631667000000     0.213094   
H        H      0.265000000000     0.131000000000     0.035000000000     0.213094   
H        H      0.869000000000     0.134000000000     0.035000000000     0.213094   
H        H      0.866000000000     0.735000000000     0.035000000000     0.213094   
H        H      0.598333000000     0.797667000000     0.701667000000     0.213094   
H        H      0.202333000000     0.800667000000     0.701667000000     0.213094   
H        H      0.199333000000     0.401667000000     0.701667000000     0.213094   
H        H      0.931667000000     0.464333000000     0.368333000000     0.213094   
H        H      0.535667000000     0.467333000000     0.368333000000     0.213094   
H        H      0.532667000000     0.068333000000     0.368333000000     0.213094   
C        C      0.715900000000     0.073100000000     0.123200000000     0.14928    
C        C      0.926900000000     0.642800000000     0.123200000000     0.14928    
C        C      0.357200000000     0.284100000000     0.123200000000     0.14928    
C        C      0.382567000000     0.406433000000     0.456533000000     0.14928    
C        C      0.593567000000     0.976133000000     0.456533000000     0.14928    
C        C      0.023867000000     0.617433000000     0.456533000000     0.14928    
C        C      0.049233000000     0.739767000000     0.789867000000     0.14928    
C        C      0.260233000000     0.309467000000     0.789867000000     0.14928    
C        C      0.690533000000     0.950767000000     0.789867000000     0.14928    
C        C      0.284100000000     0.926900000000     0.876800000000     0.14928    
C        C      0.073100000000     0.357200000000     0.876800000000     0.14928    
C        C      0.642800000000     0.715900000000     0.876800000000     0.14928    
C        C      0.617433000000     0.593567000000     0.543467000000     0.14928    
C        C      0.406433000000     0.023867000000     0.543467000000     0.14928    
C        C      0.976133000000     0.382567000000     0.543467000000     0.14928    
C        C      0.950767000000     0.260233000000     0.210133000000     0.14928    
C        C      0.739767000000     0.690533000000     0.210133000000     0.14928    
C        C      0.309467000000     0.049233000000     0.210133000000     0.14928    
C        C      0.675900000000     0.900300000000     0.238000000000     0.14928    
C        C      0.099700000000     0.775600000000     0.238000000000     0.14928    
C        C      0.224400000000     0.324100000000     0.238000000000     0.14928    
C        C      0.342567000000     0.233633000000     0.571333000000     0.14928    
C        C      0.766367000000     0.108933000000     0.571333000000     0.14928    
C        C      0.891067000000     0.657433000000     0.571333000000     0.14928    
C        C      0.009233000000     0.566967000000     0.904667000000     0.14928    
C        C      0.433033000000     0.442267000000     0.904667000000     0.14928    
C        C      0.557733000000     0.990767000000     0.904667000000     0.14928    
C        C      0.324100000000     0.099700000000     0.762000000000     0.14928    
C        C      0.900300000000     0.224400000000     0.762000000000     0.14928    
C        C      0.775600000000     0.675900000000     0.762000000000     0.14928    
C        C      0.657433000000     0.766367000000     0.428667000000     0.14928    
C        C      0.233633000000     0.891067000000     0.428667000000     0.14928    
C        C      0.108933000000     0.342567000000     0.428667000000     0.14928    
C        C      0.990767000000     0.433033000000     0.095333000000     0.14928    
C        C      0.566967000000     0.557733000000     0.095333000000     0.14928    
C        C      0.442267000000     0.009233000000     0.095333000000     0.14928    
C        C      0.694200000000     0.956000000000     0.173800000000     0.14928    
C        C      0.044000000000     0.738200000000     0.173800000000     0.14928    
C        C      0.261800000000     0.305800000000     0.173800000000     0.14928    
C        C      0.360867000000     0.289333000000     0.507133000000     0.14928    
C        C      0.710667000000     0.071533000000     0.507133000000     0.14928    
C        C      0.928467000000     0.639133000000     0.507133000000     0.14928    
C        C      0.027533000000     0.622667000000     0.840467000000     0.14928    
C        C      0.377333000000     0.404867000000     0.840467000000     0.14928    
C        C      0.595133000000     0.972467000000     0.840467000000     0.14928    
C        C      0.305800000000     0.044000000000     0.826200000000     0.14928    
C        C      0.956000000000     0.261800000000     0.826200000000     0.14928    
C        C      0.738200000000     0.694200000000     0.826200000000     0.14928    
C        C      0.639133000000     0.710667000000     0.492867000000     0.14928    
C        C      0.289333000000     0.928467000000     0.492867000000     0.14928    
C        C      0.071533000000     0.360867000000     0.492867000000     0.14928    
C        C      0.972467000000     0.377333000000     0.159533000000     0.14928    
C        C      0.622667000000     0.595133000000     0.159533000000     0.14928    
C        C      0.404867000000     0.027533000000     0.159533000000     0.14928    
C        C      0.712600000000     0.954000000000     0.102600000000     0.14928    
C        C      0.046000000000     0.758600000000     0.102600000000     0.14928    
C        C      0.241400000000     0.287400000000     0.102600000000     0.14928    
C        C      0.379267000000     0.287333000000     0.435933000000     0.14928    
C        C      0.712667000000     0.091933000000     0.435933000000     0.14928    
C        C      0.908067000000     0.620733000000     0.435933000000     0.14928    
C        C      0.045933000000     0.620667000000     0.769267000000     0.14928    
C        C      0.379333000000     0.425267000000     0.769267000000     0.14928    
C        C      0.574733000000     0.954067000000     0.769267000000     0.14928    
C        C      0.287400000000     0.046000000000     0.897400000000     0.14928    
C        C      0.954000000000     0.241400000000     0.897400000000     0.14928    
C        C      0.758600000000     0.712600000000     0.897400000000     0.14928    
C        C      0.620733000000     0.712667000000     0.564067000000     0.14928    
C        C      0.287333000000     0.908067000000     0.564067000000     0.14928    
C        C      0.091933000000     0.379267000000     0.564067000000     0.14928    
C        C      0.954067000000     0.379333000000     0.230733000000     0.14928    
C        C      0.620667000000     0.574733000000     0.230733000000     0.14928    
C        C      0.425267000000     0.045933000000     0.230733000000     0.14928    
C        C      0.715500000000     0.887400000000     0.056100000000     0.14928    
C        C      0.112600000000     0.828100000000     0.056100000000     0.14928    
C        C      0.171900000000     0.284500000000     0.056100000000     0.14928    
C        C      0.382167000000     0.220733000000     0.389433000000     0.14928    
C        C      0.779267000000     0.161433000000     0.389433000000     0.14928    
C        C      0.838567000000     0.617833000000     0.389433000000     0.14928    
C        C      0.048833000000     0.554067000000     0.722767000000     0.14928    
C        C      0.445933000000     0.494767000000     0.722767000000     0.14928    
C        C      0.505233000000     0.951167000000     0.722767000000     0.14928    
C        C      0.284500000000     0.112600000000     0.943900000000     0.14928    
C        C      0.887400000000     0.171900000000     0.943900000000     0.14928    
C        C      0.828100000000     0.715500000000     0.943900000000     0.14928    
C        C      0.617833000000     0.779267000000     0.610567000000     0.14928    
C        C      0.220733000000     0.838567000000     0.610567000000     0.14928    
C        C      0.161433000000     0.382167000000     0.610567000000     0.14928    
C        C      0.951167000000     0.445933000000     0.277233000000     0.14928    
C        C      0.554067000000     0.505233000000     0.277233000000     0.14928    
C        C      0.494767000000     0.048833000000     0.277233000000     0.14928    
Br       Br     0.729910000000     0.180480000000     0.110970000000    -0.250368   
Br       Br     0.819520000000     0.549430000000     0.110970000000    -0.250368   
Br       Br     0.450570000000     0.270090000000     0.110970000000    -0.250368   
Br       Br     0.396577000000     0.513813000000     0.444303000000    -0.250368   
Br       Br     0.486187000000     0.882763000000     0.444303000000    -0.250368   
Br       Br     0.117237000000     0.603423000000     0.444303000000    -0.250368   
Br       Br     0.063243000000     0.847147000000     0.777637000000    -0.250368   
Br       Br     0.152853000000     0.216097000000     0.777637000000    -0.250368   
Br       Br     0.783903000000     0.936757000000     0.777637000000    -0.250368   
Br       Br     0.270090000000     0.819520000000     0.889030000000    -0.250368   
Br       Br     0.180480000000     0.450570000000     0.889030000000    -0.250368   
Br       Br     0.549430000000     0.729910000000     0.889030000000    -0.250368   
Br       Br     0.603423000000     0.486187000000     0.555697000000    -0.250368   
Br       Br     0.513813000000     0.117237000000     0.555697000000    -0.250368   
Br       Br     0.882763000000     0.396577000000     0.555697000000    -0.250368   
Br       Br     0.936757000000     0.152853000000     0.222363000000    -0.250368   
Br       Br     0.847147000000     0.783903000000     0.222363000000    -0.250368   
Br       Br     0.216097000000     0.063243000000     0.222363000000    -0.250368   
N        N      0.725200000000     0.027600000000     0.070200000000    -0.249962   
N        N      0.972400000000     0.697600000000     0.070200000000    -0.249962   
N        N      0.302400000000     0.274800000000     0.070200000000    -0.249962   
N        N      0.391867000000     0.360933000000     0.403533000000    -0.249962   
N        N      0.639067000000     0.030933000000     0.403533000000    -0.249962   
N        N      0.969067000000     0.608133000000     0.403533000000    -0.249962   
N        N      0.058533000000     0.694267000000     0.736867000000    -0.249962   
N        N      0.305733000000     0.364267000000     0.736867000000    -0.249962   
N        N      0.635733000000     0.941467000000     0.736867000000    -0.249962   
N        N      0.274800000000     0.972400000000     0.929800000000    -0.249962   
N        N      0.027600000000     0.302400000000     0.929800000000    -0.249962   
N        N      0.697600000000     0.725200000000     0.929800000000    -0.249962   
N        N      0.608133000000     0.639067000000     0.596467000000    -0.249962   
N        N      0.360933000000     0.969067000000     0.596467000000    -0.249962   
N        N      0.030933000000     0.391867000000     0.596467000000    -0.249962   
N        N      0.941467000000     0.305733000000     0.263133000000    -0.249962   
N        N      0.694267000000     0.635733000000     0.263133000000    -0.249962   
N        N      0.364267000000     0.058533000000     0.263133000000    -0.249962   
N        N      0.696800000000     0.032300000000     0.186500000000    -0.249962   
N        N      0.967700000000     0.664500000000     0.186500000000    -0.249962   
N        N      0.335500000000     0.303200000000     0.186500000000    -0.249962   
N        N      0.363467000000     0.365633000000     0.519833000000    -0.249962   
N        N      0.634367000000     0.997833000000     0.519833000000    -0.249962   
N        N      0.002167000000     0.636533000000     0.519833000000    -0.249962   
N        N      0.030133000000     0.698967000000     0.853167000000    -0.249962   
N        N      0.301033000000     0.331167000000     0.853167000000    -0.249962   
N        N      0.668833000000     0.969867000000     0.853167000000    -0.249962   
N        N      0.303200000000     0.967700000000     0.813500000000    -0.249962   
N        N      0.032300000000     0.335500000000     0.813500000000    -0.249962   
N        N      0.664500000000     0.696800000000     0.813500000000    -0.249962   
N        N      0.636533000000     0.634367000000     0.480167000000    -0.249962   
N        N      0.365633000000     0.002167000000     0.480167000000    -0.249962   
N        N      0.997833000000     0.363467000000     0.480167000000    -0.249962   
N        N      0.969867000000     0.301033000000     0.146833000000    -0.249962   
N        N      0.698967000000     0.668833000000     0.146833000000    -0.249962   
N        N      0.331167000000     0.030133000000     0.146833000000    -0.249962   
N        N      0.677100000000     0.829000000000     0.232100000000    -0.249962   
N        N      0.171000000000     0.848100000000     0.232100000000    -0.249962   
N        N      0.151900000000     0.322900000000     0.232100000000    -0.249962   
N        N      0.343767000000     0.162333000000     0.565433000000    -0.249962   
N        N      0.837667000000     0.181433000000     0.565433000000    -0.249962   
N        N      0.818567000000     0.656233000000     0.565433000000    -0.249962   
N        N      0.010433000000     0.495667000000     0.898767000000    -0.249962   
N        N      0.504333000000     0.514767000000     0.898767000000    -0.249962   
N        N      0.485233000000     0.989567000000     0.898767000000    -0.249962   
N        N      0.322900000000     0.171000000000     0.767900000000    -0.249962   
N        N      0.829000000000     0.151900000000     0.767900000000    -0.249962   
N        N      0.848100000000     0.677100000000     0.767900000000    -0.249962   
N        N      0.656233000000     0.837667000000     0.434567000000    -0.249962   
N        N      0.162333000000     0.818567000000     0.434567000000    -0.249962   
N        N      0.181433000000     0.343767000000     0.434567000000    -0.249962   
N        N      0.989567000000     0.504333000000     0.101233000000    -0.249962   
N        N      0.495667000000     0.485233000000     0.101233000000    -0.249962   
N        N      0.514767000000     0.010433000000     0.101233000000    -0.249962   
N        N      0.727900000000     0.907300000000     0.989300000000    -0.249962   
N        N      0.092700000000     0.820600000000     0.989300000000    -0.249962   
N        N      0.179400000000     0.272100000000     0.989300000000    -0.249962   
N        N      0.394567000000     0.240633000000     0.322633000000    -0.249962   
N        N      0.759367000000     0.153933000000     0.322633000000    -0.249962   
N        N      0.846067000000     0.605433000000     0.322633000000    -0.249962   
N        N      0.061233000000     0.573967000000     0.655967000000    -0.249962   
N        N      0.426033000000     0.487267000000     0.655967000000    -0.249962   
N        N      0.512733000000     0.938767000000     0.655967000000    -0.249962   
N        N      0.272100000000     0.092700000000     0.010700000000    -0.249962   
N        N      0.907300000000     0.179400000000     0.010700000000    -0.249962   
N        N      0.820600000000     0.727900000000     0.010700000000    -0.249962   
N        N      0.605433000000     0.759367000000     0.677367000000    -0.249962   
N        N      0.240633000000     0.846067000000     0.677367000000    -0.249962   
N        N      0.153933000000     0.394567000000     0.677367000000    -0.249962   
N        N      0.938767000000     0.426033000000     0.344033000000    -0.249962   
N        N      0.573967000000     0.512733000000     0.344033000000    -0.249962   
N        N      0.487267000000     0.061233000000     0.344033000000    -0.249962   
O        O      0.660700000000     0.927200000000     0.296040000000    -0.282481   
O        O      0.072800000000     0.733500000000     0.296040000000    -0.282481   
O        O      0.266500000000     0.339300000000     0.296040000000    -0.282481   
O        O      0.327367000000     0.260533000000     0.629373000000    -0.282481   
O        O      0.739467000000     0.066833000000     0.629373000000    -0.282481   
O        O      0.933167000000     0.672633000000     0.629373000000    -0.282481   
O        O      0.994033000000     0.593867000000     0.962707000000    -0.282481   
O        O      0.406133000000     0.400167000000     0.962707000000    -0.282481   
O        O      0.599833000000     0.005967000000     0.962707000000    -0.282481   
O        O      0.339300000000     0.072800000000     0.703960000000    -0.282481   
O        O      0.927200000000     0.266500000000     0.703960000000    -0.282481   
O        O      0.733500000000     0.660700000000     0.703960000000    -0.282481   
O        O      0.672633000000     0.739467000000     0.370627000000    -0.282481   
O        O      0.260533000000     0.933167000000     0.370627000000    -0.282481   
O        O      0.066833000000     0.327367000000     0.370627000000    -0.282481   
O        O      0.005967000000     0.406133000000     0.037293000000    -0.282481   
O        O      0.593867000000     0.599833000000     0.037293000000    -0.282481   
O        O      0.400167000000     0.994033000000     0.037293000000    -0.282481   
O        O      0.707500000000     0.819500000000     0.085670000000    -0.282481   
O        O      0.180500000000     0.888000000000     0.085670000000    -0.282481   
O        O      0.112000000000     0.292500000000     0.085670000000    -0.282481   
O        O      0.374167000000     0.152833000000     0.419003000000    -0.282481   
O        O      0.847167000000     0.221333000000     0.419003000000    -0.282481   
O        O      0.778667000000     0.625833000000     0.419003000000    -0.282481   
O        O      0.040833000000     0.486167000000     0.752337000000    -0.282481   
O        O      0.513833000000     0.554667000000     0.752337000000    -0.282481   
O        O      0.445333000000     0.959167000000     0.752337000000    -0.282481   
O        O      0.292500000000     0.180500000000     0.914330000000    -0.282481   
O        O      0.819500000000     0.112000000000     0.914330000000    -0.282481   
O        O      0.888000000000     0.707500000000     0.914330000000    -0.282481   
O        O      0.625833000000     0.847167000000     0.580997000000    -0.282481   
O        O      0.152833000000     0.778667000000     0.580997000000    -0.282481   
O        O      0.221333000000     0.374167000000     0.580997000000    -0.282481   
O        O      0.959167000000     0.513833000000     0.247663000000    -0.282481   
O        O      0.486167000000     0.445333000000     0.247663000000    -0.282481   
O        O      0.554667000000     0.040833000000     0.247663000000    -0.282481   


