data_HELDEJ_original

_audit_creation_method RASPA-1.0
_audit_creation_date 2022-1-29
_audit_author_name 'Felipe Lopes de Oliveira <felipe.lopes.oliveira@ibm.com>'

_cell_length_a    12.618
_cell_length_b    12.927
_cell_length_c    13.012
_cell_angle_alpha 78.3
_cell_angle_beta  62.22
_cell_angle_gamma 62.07
_cell_volume      1658.75

_symmetry_cell_setting          triclinic
_symmetry_space_group_name_Hall 'P 1'
_symmetry_space_group_name_H-M  'P 1'
_symmetry_Int_Tables_number     1

_symmetry_equiv_pos_as_xyz 'x,y,z'

loop_
_atom_site_label
_atom_site_type_symbol
_atom_site_fract_x
_atom_site_fract_y
_atom_site_fract_z
_atom_site_charge
Zn       Zn     0.658230000000     0.141250000000     0.393870000000     0.476637   
Zn       Zn     0.341770000000     0.858750000000     0.606130000000     0.476637   
Zn       Zn     0.000000000000     0.000000000000     0.000000000000     0.476637   
H        H      0.112300000000     0.816700000000     0.879000000000     0.0989291  
H        H      0.985000000000     0.166100000000     0.554400000000     0.0989291  
H        H      0.831000000000     0.943600000000     0.598300000000     0.0989291  
H        H      0.695000000000     0.117100000000     0.712600000000     0.0989291  
H        H      0.734200000000     0.222000000000     0.669800000000     0.0989291  
H        H      0.953200000000     0.984900000000     0.777800000000     0.0989291  
H        H      0.616800000000     0.935700000000     0.586100000000     0.0989291  
H        H      0.357200000000     0.960700000000     0.858300000000     0.0989291  
H        H      0.506800000000     0.870900000000     0.796800000000     0.0989291  
H        H      0.285800000000     0.079000000000     0.020300000000     0.0989291  
H        H      0.671800000000     0.881400000000     0.842000000000     0.0989291  
H        H      0.905500000000     0.773100000000     0.183100000000     0.0989291  
H        H      0.010700000000     0.782900000000     0.208000000000     0.0989291  
H        H      0.786300000000     0.751700000000     0.380800000000     0.0989291  
H        H      0.883900000000     0.769700000000     0.410000000000     0.0989291  
H        H      0.934300000000     0.373100000000     0.221000000000     0.0989291  
H        H      0.023000000000     0.265900000000     0.271200000000     0.0989291  
H        H      0.845000000000     0.324800000000     0.459700000000     0.0989291  
H        H      0.757000000000     0.420700000000     0.401400000000     0.0989291  
H        H      0.252200000000     0.449600000000     0.427100000000     0.0989291  
H        H      0.275900000000     0.322700000000     0.409900000000     0.0989291  
H        H      0.388300000000     0.348900000000     0.203500000000     0.0989291  
H        H      0.385700000000     0.460000000000     0.237500000000     0.0989291  
H        H      0.887700000000     0.183300000000     0.121000000000     0.0989291  
H        H      0.015000000000     0.833900000000     0.445600000000     0.0989291  
H        H      0.169000000000     0.056400000000     0.401700000000     0.0989291  
H        H      0.305000000000     0.882900000000     0.287400000000     0.0989291  
H        H      0.265800000000     0.778000000000     0.330200000000     0.0989291  
H        H      0.046800000000     0.015100000000     0.222200000000     0.0989291  
H        H      0.383200000000     0.064300000000     0.413900000000     0.0989291  
H        H      0.642800000000     0.039300000000     0.141700000000     0.0989291  
H        H      0.493200000000     0.129100000000     0.203200000000     0.0989291  
H        H      0.714200000000     0.921000000000     0.979700000000     0.0989291  
H        H      0.328200000000     0.118600000000     0.158000000000     0.0989291  
H        H      0.094500000000     0.226900000000     0.816900000000     0.0989291  
H        H      0.989300000000     0.217100000000     0.792000000000     0.0989291  
H        H      0.213700000000     0.248300000000     0.619200000000     0.0989291  
H        H      0.116100000000     0.230300000000     0.590000000000     0.0989291  
H        H      0.065700000000     0.626900000000     0.779000000000     0.0989291  
H        H      0.977000000000     0.734100000000     0.728800000000     0.0989291  
H        H      0.155000000000     0.675200000000     0.540300000000     0.0989291  
H        H      0.243000000000     0.579300000000     0.598600000000     0.0989291  
H        H      0.747800000000     0.550400000000     0.572900000000     0.0989291  
H        H      0.724100000000     0.677300000000     0.590100000000     0.0989291  
H        H      0.611700000000     0.651100000000     0.796500000000     0.0989291  
H        H      0.614300000000     0.540000000000     0.762500000000     0.0989291  
C        C      0.990800000000     0.098700000000     0.532600000000     0.0595794  
C        C      0.886200000000     0.067300000000     0.594700000000     0.0595794  
C        C      0.899400000000     0.966700000000     0.558700000000     0.0595794  
C        C      0.764400000000     0.141000000000     0.693300000000     0.0595794  
C        C      0.750200000000     0.179500000000     0.959000000000     0.0595794  
C        C      0.883300000000     0.050400000000     0.823600000000     0.0595794  
C        C      0.447600000000     0.192400000000     0.644600000000     0.0595794  
C        C      0.556600000000     0.010000000000     0.619300000000     0.0595794  
C        C      0.447900000000     0.951100000000     0.825100000000     0.0595794  
C        C      0.474700000000     0.976000000000     0.916700000000     0.0595794  
C        C      0.372700000000     0.046900000000     0.011800000000     0.0595794  
C        C      0.602000000000     0.929400000000     0.905700000000     0.0595794  
C        C      0.837200000000     0.932800000000     0.252400000000     0.0595794  
C        C      0.917300000000     0.801300000000     0.238900000000     0.0595794  
C        C      0.878000000000     0.737600000000     0.352600000000     0.0595794  
C        C      0.922100000000     0.540800000000     0.312900000000     0.0595794  
C        C      0.073200000000     0.568500000000     0.358100000000     0.0595794  
C        C      0.108200000000     0.371300000000     0.332000000000     0.0595794  
C        C      0.952500000000     0.344900000000     0.288600000000     0.0595794  
C        C      0.830000000000     0.343300000000     0.390200000000     0.0595794  
C        C      0.792000000000     0.255100000000     0.373600000000     0.0595794  
C        C      0.264200000000     0.398300000000     0.373700000000     0.0595794  
C        C      0.387800000000     0.383500000000     0.263400000000     0.0595794  
C        C      0.514700000000     0.307100000000     0.278100000000     0.0595794  
C        C      0.009200000000     0.901300000000     0.467400000000     0.0595794  
C        C      0.113800000000     0.932700000000     0.405300000000     0.0595794  
C        C      0.100600000000     0.033300000000     0.441300000000     0.0595794  
C        C      0.235600000000     0.859000000000     0.306700000000     0.0595794  
C        C      0.249800000000     0.820500000000     0.041000000000     0.0595794  
C        C      0.116700000000     0.949600000000     0.176400000000     0.0595794  
C        C      0.552400000000     0.807600000000     0.355400000000     0.0595794  
C        C      0.443400000000     0.990000000000     0.380700000000     0.0595794  
C        C      0.552100000000     0.048900000000     0.174900000000     0.0595794  
C        C      0.525300000000     0.024000000000     0.083300000000     0.0595794  
C        C      0.627300000000     0.953100000000     0.988200000000     0.0595794  
C        C      0.398000000000     0.070600000000     0.094300000000     0.0595794  
C        C      0.162800000000     0.067200000000     0.747600000000     0.0595794  
C        C      0.082700000000     0.198700000000     0.761100000000     0.0595794  
C        C      0.122000000000     0.262400000000     0.647400000000     0.0595794  
C        C      0.077900000000     0.459200000000     0.687100000000     0.0595794  
C        C      0.926800000000     0.431500000000     0.641900000000     0.0595794  
C        C      0.891800000000     0.628700000000     0.668000000000     0.0595794  
C        C      0.047500000000     0.655100000000     0.711400000000     0.0595794  
C        C      0.170000000000     0.656700000000     0.609800000000     0.0595794  
C        C      0.208000000000     0.744900000000     0.626400000000     0.0595794  
C        C      0.735800000000     0.601700000000     0.626300000000     0.0595794  
C        C      0.612200000000     0.616500000000     0.736600000000     0.0595794  
C        C      0.485300000000     0.692900000000     0.721900000000     0.0595794  
N        N      0.962100000000     0.610600000000     0.340800000000    -0.14716    
N        N      0.144500000000     0.447100000000     0.354000000000    -0.14716    
N        N      0.996400000000     0.421200000000     0.313600000000    -0.14716    
N        N      0.546300000000     0.108800000000     0.563900000000    -0.14716    
N        N      0.397200000000     0.148200000000     0.746600000000    -0.14716    
N        N      0.469300000000     0.031800000000     0.728200000000    -0.14716    
N        N      0.863600000000     0.077900000000     0.926100000000    -0.14716    
N        N      0.701000000000     0.213600000000     0.883400000000    -0.14716    
N        N      0.785800000000     0.132400000000     0.797900000000    -0.14716    
N        N      0.037900000000     0.389400000000     0.659200000000    -0.14716    
N        N      0.855500000000     0.552900000000     0.646000000000    -0.14716    
N        N      0.003600000000     0.578800000000     0.686400000000    -0.14716    
N        N      0.453700000000     0.891200000000     0.436100000000    -0.14716    
N        N      0.602800000000     0.851800000000     0.253400000000    -0.14716    
N        N      0.530700000000     0.968200000000     0.271800000000    -0.14716    
N        N      0.136400000000     0.922100000000     0.073900000000    -0.14716    
N        N      0.299000000000     0.786400000000     0.116600000000    -0.14716    
N        N      0.214200000000     0.867600000000     0.202100000000    -0.14716    
O        O      0.681500000000     0.259900000000     0.451000000000    -0.309579   
O        O      0.858000000000     0.184400000000     0.297000000000    -0.309579   
O        O      0.513800000000     0.227100000000     0.347700000000    -0.309579   
O        O      0.616700000000     0.318500000000     0.211400000000    -0.309579   
O        O      0.848900000000     0.994500000000     0.165100000000    -0.309579   
O        O      0.759200000000     0.973200000000     0.354100000000    -0.309579   
O        O      0.824200000000     0.582900000000     0.294500000000    -0.309579   
O        O      0.109900000000     0.632000000000     0.376100000000    -0.309579   
O        O      0.172200000000     0.265900000000     0.331300000000    -0.309579   
O        O      0.050300000000     0.832200000000     0.944000000000    -0.309579   
O        O      0.318500000000     0.740100000000     0.549000000000    -0.309579   
O        O      0.142000000000     0.815600000000     0.703000000000    -0.309579   
O        O      0.486200000000     0.772900000000     0.652300000000    -0.309579   
O        O      0.383300000000     0.681500000000     0.788600000000    -0.309579   
O        O      0.151100000000     0.005500000000     0.834900000000    -0.309579   
O        O      0.240800000000     0.026800000000     0.645900000000    -0.309579   
O        O      0.175800000000     0.417100000000     0.705500000000    -0.309579   
O        O      0.890100000000     0.368000000000     0.623900000000    -0.309579   
O        O      0.827800000000     0.734100000000     0.668700000000    -0.309579   
O        O      0.949700000000     0.167800000000     0.056000000000    -0.309579   


