data_HENYUV_original

_audit_creation_method RASPA-1.0
_audit_creation_date 2022-1-29
_audit_author_name 'Felipe Lopes de Oliveira <felipe.lopes.oliveira@ibm.com>'

_cell_length_a    7.0249
_cell_length_b    7.0249
_cell_length_c    19.936
_cell_angle_alpha 90
_cell_angle_beta  90
_cell_angle_gamma 90
_cell_volume      983.826

_symmetry_cell_setting          triclinic
_symmetry_space_group_name_Hall 'P 1'
_symmetry_space_group_name_H-M  'P 1'
_symmetry_Int_Tables_number     1

_symmetry_equiv_pos_as_xyz 'x,y,z'

loop_
_atom_site_label
_atom_site_type_symbol
_atom_site_fract_x
_atom_site_fract_y
_atom_site_fract_z
_atom_site_charge
Zn       Zn     0.000000000000     0.000000000000     0.724030000000     0.479759   
Zn       Zn     0.500000000000     0.500000000000     0.224030000000     0.479759   
Zn       Zn     0.500000000000     0.500000000000     0.775970000000     0.479759   
Zn       Zn     0.000000000000     0.000000000000     0.275970000000     0.479759   
H        H      0.833000000000     0.233500000000     0.949300000000     0.0832765  
H        H      0.167000000000     0.766500000000     0.949300000000     0.0832765  
H        H      0.266500000000     0.333000000000     0.449300000000     0.0832765  
H        H      0.733500000000     0.667000000000     0.449300000000     0.0832765  
H        H      0.667000000000     0.733500000000     0.550700000000     0.0832765  
H        H      0.333000000000     0.266500000000     0.550700000000     0.0832765  
H        H      0.233500000000     0.833000000000     0.050700000000     0.0832765  
H        H      0.766500000000     0.167000000000     0.050700000000     0.0832765  
C        C      0.898700000000     0.137800000000     0.926900000000     0.0765814  
C        C      0.897800000000     0.129500000000     0.857400000000     0.0765814  
C        C      0.781000000000     0.255300000000     0.811900000000     0.0765814  
C        C      0.101300000000     0.862200000000     0.926900000000     0.0765814  
C        C      0.102200000000     0.870500000000     0.857400000000     0.0765814  
C        C      0.219000000000     0.744700000000     0.811900000000     0.0765814  
C        C      0.362200000000     0.398700000000     0.426900000000     0.0765814  
C        C      0.370500000000     0.397800000000     0.357400000000     0.0765814  
C        C      0.244700000000     0.281000000000     0.311900000000     0.0765814  
C        C      0.637800000000     0.601300000000     0.426900000000     0.0765814  
C        C      0.629500000000     0.602200000000     0.357400000000     0.0765814  
C        C      0.755300000000     0.719000000000     0.311900000000     0.0765814  
C        C      0.601300000000     0.637800000000     0.573100000000     0.0765814  
C        C      0.602200000000     0.629500000000     0.642600000000     0.0765814  
C        C      0.719000000000     0.755300000000     0.688100000000     0.0765814  
C        C      0.398700000000     0.362200000000     0.573100000000     0.0765814  
C        C      0.397800000000     0.370500000000     0.642600000000     0.0765814  
C        C      0.281000000000     0.244700000000     0.688100000000     0.0765814  
C        C      0.137800000000     0.898700000000     0.073100000000     0.0765814  
C        C      0.129500000000     0.897800000000     0.142600000000     0.0765814  
C        C      0.255300000000     0.781000000000     0.188100000000     0.0765814  
C        C      0.862200000000     0.101300000000     0.073100000000     0.0765814  
C        C      0.870500000000     0.102200000000     0.142600000000     0.0765814  
C        C      0.744700000000     0.219000000000     0.188100000000     0.0765814  
C        C      0.000000000000     0.000000000000     0.962600000000     0.0765814  
C        C      0.500000000000     0.500000000000     0.462600000000     0.0765814  
C        C      0.500000000000     0.500000000000     0.537400000000     0.0765814  
C        C      0.000000000000     0.000000000000     0.037400000000     0.0765814  
N        N      0.000000000000     0.000000000000     0.824800000000    -0.135609   
N        N      0.500000000000     0.500000000000     0.324800000000    -0.135609   
N        N      0.500000000000     0.500000000000     0.675200000000    -0.135609   
N        N      0.000000000000     0.000000000000     0.175200000000    -0.135609   
O        O      0.663900000000     0.365400000000     0.839650000000    -0.261693   
O        O      0.805800000000     0.235900000000     0.750450000000    -0.261693   
O        O      0.336100000000     0.634600000000     0.839650000000    -0.261693   
O        O      0.194200000000     0.764100000000     0.750450000000    -0.261693   
O        O      0.134600000000     0.163900000000     0.339650000000    -0.261693   
O        O      0.264100000000     0.305800000000     0.250450000000    -0.261693   
O        O      0.865400000000     0.836100000000     0.339650000000    -0.261693   
O        O      0.735900000000     0.694200000000     0.250450000000    -0.261693   
O        O      0.836100000000     0.865400000000     0.660350000000    -0.261693   
O        O      0.694200000000     0.735900000000     0.749550000000    -0.261693   
O        O      0.163900000000     0.134600000000     0.660350000000    -0.261693   
O        O      0.305800000000     0.264100000000     0.749550000000    -0.261693   
O        O      0.365400000000     0.663900000000     0.160350000000    -0.261693   
O        O      0.235900000000     0.805800000000     0.249550000000    -0.261693   
O        O      0.634600000000     0.336100000000     0.160350000000    -0.261693   
O        O      0.764100000000     0.194200000000     0.249550000000    -0.261693   


