data_HIFGIO_original

_audit_creation_method RASPA-1.0
_audit_creation_date 2022-1-31
_audit_author_name 'Felipe Lopes de Oliveira <felipe.lopes.oliveira@ibm.com>'

_cell_length_a    5.966
_cell_length_b    19.0132
_cell_length_c    19.0132
_cell_angle_alpha 78.673
_cell_angle_beta  82.2485
_cell_angle_gamma 82.2485
_cell_volume      2082.31

_symmetry_cell_setting          triclinic
_symmetry_space_group_name_Hall 'P 1'
_symmetry_space_group_name_H-M  'P 1'
_symmetry_Int_Tables_number     1

_symmetry_equiv_pos_as_xyz 'x,y,z'

loop_
_atom_site_label
_atom_site_type_symbol
_atom_site_fract_x
_atom_site_fract_y
_atom_site_fract_z
_atom_site_charge
Zn       Zn     0.500000000000     0.000000000000     0.000000000000     0.5084     
Zn       Zn     0.000000000000     0.060120000000     0.939880000000     0.5084     
Zn       Zn     0.000000000000     0.939880000000     0.060120000000     0.5084     
H        H      0.752300000000     0.287300000000     0.928100000000     0.0941191  
H        H      0.552800000000     0.396900000000     0.941700000000     0.0941191  
H        H      0.011200000000     0.304100000000     0.029100000000     0.0941191  
H        H      0.190400000000     0.194800000000     0.007600000000     0.0941191  
H        H      0.048800000000     0.561000000000     0.088000000000     0.0941191  
H        H      0.345400000000     0.478800000000     0.130800000000     0.0941191  
H        H      0.502200000000     0.452900000000     0.063500000000     0.0941191  
H        H      0.356900000000     0.397200000000     0.119400000000     0.0941191  
H        H      0.247700000000     0.071900000000     0.712700000000     0.0941191  
H        H      0.447200000000     0.058300000000     0.603100000000     0.0941191  
H        H      0.988800000000     0.970900000000     0.695900000000     0.0941191  
H        H      0.809600000000     0.992400000000     0.805200000000     0.0941191  
H        H      0.951200000000     0.912000000000     0.439000000000     0.0941191  
H        H      0.654600000000     0.869200000000     0.521200000000     0.0941191  
H        H      0.497800000000     0.936500000000     0.547100000000     0.0941191  
H        H      0.643100000000     0.880600000000     0.602800000000     0.0941191  
H        H      0.247700000000     0.712700000000     0.071900000000     0.0941191  
H        H      0.447200000000     0.603100000000     0.058300000000     0.0941191  
H        H      0.988800000000     0.695900000000     0.970900000000     0.0941191  
H        H      0.809600000000     0.805200000000     0.992400000000     0.0941191  
H        H      0.951200000000     0.439000000000     0.912000000000     0.0941191  
H        H      0.654600000000     0.521200000000     0.869200000000     0.0941191  
H        H      0.497800000000     0.547100000000     0.936500000000     0.0941191  
H        H      0.643100000000     0.602800000000     0.880600000000     0.0941191  
H        H      0.752300000000     0.928100000000     0.287300000000     0.0941191  
H        H      0.552800000000     0.941700000000     0.396900000000     0.0941191  
H        H      0.011200000000     0.029100000000     0.304100000000     0.0941191  
H        H      0.190400000000     0.007600000000     0.194800000000     0.0941191  
H        H      0.048800000000     0.088000000000     0.561000000000     0.0941191  
H        H      0.345400000000     0.130800000000     0.478800000000     0.0941191  
H        H      0.502200000000     0.063500000000     0.452900000000     0.0941191  
H        H      0.356900000000     0.119400000000     0.397200000000     0.0941191  
C        C      0.626200000000     0.157000000000     0.965600000000    -0.0275086  
C        C      0.500700000000     0.228500000000     0.970700000000    -0.0275086  
C        C      0.598400000000     0.289100000000     0.949100000000    -0.0275086  
C        C      0.477100000000     0.354700000000     0.957100000000    -0.0275086  
C        C      0.258300000000     0.362600000000     0.985600000000    -0.0275086  
C        C      0.163200000000     0.301700000000     0.006300000000    -0.0275086  
C        C      0.272100000000     0.235800000000     0.996600000000    -0.0275086  
C        C      0.125600000000     0.433700000000     0.993300000000    -0.0275086  
C        C      0.154900000000     0.469400000000     0.048400000000    -0.0275086  
C        C      0.026100000000     0.535900000000     0.051500000000    -0.0275086  
C        C      0.358900000000     0.447600000000     0.094800000000    -0.0275086  
C        C      0.373800000000     0.034400000000     0.843000000000    -0.0275086  
C        C      0.499300000000     0.029300000000     0.771500000000    -0.0275086  
C        C      0.401600000000     0.050900000000     0.710900000000    -0.0275086  
C        C      0.522900000000     0.042900000000     0.645300000000    -0.0275086  
C        C      0.741700000000     0.014400000000     0.637400000000    -0.0275086  
C        C      0.836800000000     0.993700000000     0.698300000000    -0.0275086  
C        C      0.727900000000     0.003400000000     0.764200000000    -0.0275086  
C        C      0.874400000000     0.006700000000     0.566300000000    -0.0275086  
C        C      0.845100000000     0.951600000000     0.530600000000    -0.0275086  
C        C      0.973900000000     0.948500000000     0.464100000000    -0.0275086  
C        C      0.641100000000     0.905200000000     0.552400000000    -0.0275086  
C        C      0.373800000000     0.843000000000     0.034400000000    -0.0275086  
C        C      0.499300000000     0.771500000000     0.029300000000    -0.0275086  
C        C      0.401600000000     0.710900000000     0.050900000000    -0.0275086  
C        C      0.522900000000     0.645300000000     0.042900000000    -0.0275086  
C        C      0.741700000000     0.637400000000     0.014400000000    -0.0275086  
C        C      0.836800000000     0.698300000000     0.993700000000    -0.0275086  
C        C      0.727900000000     0.764200000000     0.003400000000    -0.0275086  
C        C      0.874400000000     0.566300000000     0.006700000000    -0.0275086  
C        C      0.845100000000     0.530600000000     0.951600000000    -0.0275086  
C        C      0.973900000000     0.464100000000     0.948500000000    -0.0275086  
C        C      0.641100000000     0.552400000000     0.905200000000    -0.0275086  
C        C      0.626200000000     0.965600000000     0.157000000000    -0.0275086  
C        C      0.500700000000     0.970700000000     0.228500000000    -0.0275086  
C        C      0.598400000000     0.949100000000     0.289100000000    -0.0275086  
C        C      0.477100000000     0.957100000000     0.354700000000    -0.0275086  
C        C      0.258300000000     0.985600000000     0.362600000000    -0.0275086  
C        C      0.163200000000     0.006300000000     0.301700000000    -0.0275086  
C        C      0.272100000000     0.996600000000     0.235800000000    -0.0275086  
C        C      0.125600000000     0.993300000000     0.433700000000    -0.0275086  
C        C      0.154900000000     0.048400000000     0.469400000000    -0.0275086  
C        C      0.026100000000     0.051500000000     0.535900000000    -0.0275086  
C        C      0.358900000000     0.094800000000     0.447600000000    -0.0275086  
O        O      0.540300000000     0.103800000000     0.987000000000    -0.332663   
O        O      0.826700000000     0.153520000000     0.939600000000    -0.332663   
O        O      0.459700000000     0.013000000000     0.896200000000    -0.332663   
O        O      0.173300000000     0.060400000000     0.846480000000    -0.332663   
O        O      0.459700000000     0.896200000000     0.013000000000    -0.332663   
O        O      0.173300000000     0.846480000000     0.060400000000    -0.332663   
O        O      0.540300000000     0.987000000000     0.103800000000    -0.332663   
O        O      0.826700000000     0.939600000000     0.153520000000    -0.332663   
O        O      0.162700000000     0.028310000000     0.028310000000    -0.332663   
O        O      0.837300000000     0.971690000000     0.971690000000    -0.332663   


