data_HIFGOU_original

_audit_creation_method RASPA-1.0
_audit_creation_date 2022-1-30
_audit_author_name 'Felipe Lopes de Oliveira <felipe.lopes.oliveira@ibm.com>'

_cell_length_a    9.728
_cell_length_b    11.672
_cell_length_c    14.554
_cell_angle_alpha 93.466
_cell_angle_beta  96.367
_cell_angle_gamma 93.175
_cell_volume      1636.13

_symmetry_cell_setting          triclinic
_symmetry_space_group_name_Hall 'P 1'
_symmetry_space_group_name_H-M  'P 1'
_symmetry_Int_Tables_number     1

_symmetry_equiv_pos_as_xyz 'x,y,z'

loop_
_atom_site_label
_atom_site_type_symbol
_atom_site_fract_x
_atom_site_fract_y
_atom_site_fract_z
_atom_site_charge
Zn       Zn     0.135380000000     0.962330000000     0.973370000000     0.465973   
Zn       Zn     0.864620000000     0.037670000000     0.026630000000     0.465973   
H        H      0.044400000000     0.256500000000     0.266200000000     0.099134   
H        H      0.165400000000     0.365300000000     0.388300000000     0.099134   
H        H      0.513600000000     0.347600000000     0.264300000000     0.099134   
H        H      0.394700000000     0.231400000000     0.145500000000     0.099134   
H        H      0.354600000000     0.342500000000     0.515200000000     0.099134   
H        H      0.485800000000     0.534100000000     0.269100000000     0.099134   
H        H      0.509000000000     0.659200000000     0.316100000000     0.099134   
H        H      0.635400000000     0.582800000000     0.308900000000     0.099134   
H        H      0.859300000000     0.795300000000     0.205800000000     0.099134   
H        H      0.837700000000     0.681100000000     0.328000000000     0.099134   
H        H      0.233500000000     0.607800000000     0.328700000000     0.099134   
H        H      0.251500000000     0.713700000000     0.201400000000     0.099134   
H        H      0.856000000000     0.469400000000     0.363100000000     0.099134   
H        H      0.228500000000     0.722000000000     0.470700000000     0.099134   
H        H      0.209000000000     0.733700000000     0.576200000000     0.099134   
H        H      0.311600000000     0.646900000000     0.540400000000     0.099134   
H        H      0.408700000000     0.090400000000     0.961000000000     0.099134   
H        H      0.569600000000     0.113600000000     0.858400000000     0.099134   
H        H      0.356000000000     0.873800000000     0.689900000000     0.099134   
H        H      0.204900000000     0.851700000000     0.797200000000     0.099134   
H        H      0.656200000000     0.954000000000     0.705800000000     0.099134   
H        H      0.628100000000     0.084200000000     0.697500000000     0.099134   
H        H      0.380100000000     0.100000000000     0.603800000000     0.099134   
H        H      0.513000000000     0.145100000000     0.561500000000     0.099134   
H        H      0.691100000000     0.016500000000     0.533100000000     0.099134   
H        H      0.674400000000     0.887100000000     0.556400000000     0.099134   
H        H      0.955600000000     0.743500000000     0.733800000000     0.099134   
H        H      0.834600000000     0.634700000000     0.611700000000     0.099134   
H        H      0.486400000000     0.652400000000     0.735700000000     0.099134   
H        H      0.605300000000     0.768600000000     0.854500000000     0.099134   
H        H      0.645400000000     0.657500000000     0.484800000000     0.099134   
H        H      0.514200000000     0.465900000000     0.730900000000     0.099134   
H        H      0.491000000000     0.340800000000     0.683900000000     0.099134   
H        H      0.364600000000     0.417200000000     0.691100000000     0.099134   
H        H      0.140700000000     0.204700000000     0.794200000000     0.099134   
H        H      0.162300000000     0.318900000000     0.672000000000     0.099134   
H        H      0.766500000000     0.392200000000     0.671300000000     0.099134   
H        H      0.748500000000     0.286300000000     0.798600000000     0.099134   
H        H      0.144000000000     0.530600000000     0.636900000000     0.099134   
H        H      0.771500000000     0.278000000000     0.529300000000     0.099134   
H        H      0.791000000000     0.266300000000     0.423800000000     0.099134   
H        H      0.688400000000     0.353100000000     0.459600000000     0.099134   
H        H      0.591300000000     0.909600000000     0.039000000000     0.099134   
H        H      0.430400000000     0.886400000000     0.141600000000     0.099134   
H        H      0.644000000000     0.126200000000     0.310100000000     0.099134   
H        H      0.795100000000     0.148300000000     0.202800000000     0.099134   
H        H      0.343800000000     0.046000000000     0.294200000000     0.099134   
H        H      0.371900000000     0.915800000000     0.302500000000     0.099134   
H        H      0.619900000000     0.900000000000     0.396200000000     0.099134   
H        H      0.487000000000     0.854900000000     0.438500000000     0.099134   
H        H      0.308900000000     0.983500000000     0.466900000000     0.099134   
H        H      0.325600000000     0.112900000000     0.443600000000     0.099134   
C        C      0.131800000000     0.151100000000     0.117200000000    -0.0534106  
C        C      0.205800000000     0.230600000000     0.193100000000    -0.0534106  
C        C      0.139100000000     0.273200000000     0.266300000000    -0.0534106  
C        C      0.211500000000     0.339800000000     0.339000000000    -0.0534106  
C        C      0.353700000000     0.370100000000     0.340400000000    -0.0534106  
C        C      0.419800000000     0.328400000000     0.265600000000    -0.0534106  
C        C      0.348300000000     0.259300000000     0.193900000000    -0.0534106  
C        C      0.429200000000     0.438400000000     0.419900000000    -0.0534106  
C        C      0.413900000000     0.406300000000     0.509100000000    -0.0534106  
C        C      0.518400000000     0.536500000000     0.409900000000    -0.0534106  
C        C      0.539000000000     0.582300000000     0.317700000000    -0.0534106  
C        C      0.069200000000     0.844600000000     0.112900000000    -0.0534106  
C        C      0.056800000000     0.767500000000     0.191000000000    -0.0534106  
C        C      0.935000000000     0.756900000000     0.229900000000    -0.0534106  
C        C      0.922600000000     0.690100000000     0.304800000000    -0.0534106  
C        C      0.035700000000     0.636900000000     0.344900000000    -0.0534106  
C        C      0.157500000000     0.645600000000     0.304300000000    -0.0534106  
C        C      0.168800000000     0.709600000000     0.227900000000    -0.0534106  
C        C      0.019900000000     0.568500000000     0.426200000000    -0.0534106  
C        C      0.913900000000     0.481400000000     0.418500000000    -0.0534106  
C        C      0.108400000000     0.587700000000     0.509900000000    -0.0534106  
C        C      0.225100000000     0.681200000000     0.525800000000    -0.0534106  
C        C      0.397400000000     0.045000000000     0.905700000000    -0.0534106  
C        C      0.494500000000     0.060300000000     0.843500000000    -0.0534106  
C        C      0.479600000000     0.997700000000     0.761200000000    -0.0534106  
C        C      0.369700000000     0.919300000000     0.745200000000    -0.0534106  
C        C      0.278500000000     0.906700000000     0.809900000000    -0.0534106  
C        C      0.584600000000     0.006900000000     0.691600000000    -0.0534106  
C        C      0.447900000000     0.079300000000     0.562600000000    -0.0534106  
C        C      0.624600000000     0.951700000000     0.534400000000    -0.0534106  
C        C      0.868200000000     0.848900000000     0.882800000000    -0.0534106  
C        C      0.794200000000     0.769400000000     0.806900000000    -0.0534106  
C        C      0.860900000000     0.726800000000     0.733700000000    -0.0534106  
C        C      0.788500000000     0.660200000000     0.661000000000    -0.0534106  
C        C      0.646300000000     0.629900000000     0.659600000000    -0.0534106  
C        C      0.580200000000     0.671600000000     0.734400000000    -0.0534106  
C        C      0.651700000000     0.740700000000     0.806100000000    -0.0534106  
C        C      0.570800000000     0.561600000000     0.580100000000    -0.0534106  
C        C      0.586100000000     0.593700000000     0.490900000000    -0.0534106  
C        C      0.481600000000     0.463500000000     0.590100000000    -0.0534106  
C        C      0.461000000000     0.417700000000     0.682300000000    -0.0534106  
C        C      0.930800000000     0.155400000000     0.887100000000    -0.0534106  
C        C      0.943200000000     0.232500000000     0.809000000000    -0.0534106  
C        C      0.065000000000     0.243100000000     0.770100000000    -0.0534106  
C        C      0.077400000000     0.309900000000     0.695200000000    -0.0534106  
C        C      0.964300000000     0.363100000000     0.655100000000    -0.0534106  
C        C      0.842500000000     0.354400000000     0.695700000000    -0.0534106  
C        C      0.831200000000     0.290400000000     0.772100000000    -0.0534106  
C        C      0.980100000000     0.431500000000     0.573800000000    -0.0534106  
C        C      0.086100000000     0.518600000000     0.581500000000    -0.0534106  
C        C      0.891600000000     0.412300000000     0.490100000000    -0.0534106  
C        C      0.774900000000     0.318800000000     0.474200000000    -0.0534106  
C        C      0.602600000000     0.955000000000     0.094300000000    -0.0534106  
C        C      0.505500000000     0.939700000000     0.156500000000    -0.0534106  
C        C      0.520400000000     0.002300000000     0.238800000000    -0.0534106  
C        C      0.630300000000     0.080700000000     0.254800000000    -0.0534106  
C        C      0.721500000000     0.093300000000     0.190100000000    -0.0534106  
C        C      0.415400000000     0.993100000000     0.308400000000    -0.0534106  
C        C      0.552100000000     0.920700000000     0.437400000000    -0.0534106  
C        C      0.375400000000     0.048300000000     0.465600000000    -0.0534106  
N        N      0.290600000000     0.969600000000     0.890200000000    -0.130075   
N        N      0.521900000000     0.981200000000     0.596900000000    -0.130075   
N        N      0.709400000000     0.030400000000     0.109800000000    -0.130075   
N        N      0.478100000000     0.018800000000     0.403100000000    -0.130075   
O        O      0.204200000000     0.090500000000     0.070180000000    -0.295247   
O        O      0.999900000000     0.149900000000     0.108100000000    -0.295247   
O        O      0.173400000000     0.841800000000     0.069320000000    -0.295247   
O        O      0.970800000000     0.908000000000     0.096060000000    -0.295247   
O        O      0.795800000000     0.909500000000     0.929820000000    -0.295247   
O        O      0.000100000000     0.850100000000     0.891900000000    -0.295247   
O        O      0.826600000000     0.158200000000     0.930680000000    -0.295247   
O        O      0.029200000000     0.092000000000     0.903940000000    -0.295247   


