data_HIFTOG02_original

_audit_creation_method RASPA-1.0
_audit_creation_date 2022-1-30
_audit_author_name 'Felipe Lopes de Oliveira <felipe.lopes.oliveira@ibm.com>'

_cell_length_a    18.38
_cell_length_b    18.38
_cell_length_c    18.38
_cell_angle_alpha 60.2595
_cell_angle_beta  60.2595
_cell_angle_gamma 60.2595
_cell_volume      4416.37

_symmetry_cell_setting          triclinic
_symmetry_space_group_name_Hall 'P 1'
_symmetry_space_group_name_H-M  'P 1'
_symmetry_Int_Tables_number     1

_symmetry_equiv_pos_as_xyz 'x,y,z'

loop_
_atom_site_label
_atom_site_type_symbol
_atom_site_fract_x
_atom_site_fract_y
_atom_site_fract_z
_atom_site_charge
Zn       Zn     0.609330000000     0.783290000000     0.609330000000     0.469969   
Zn       Zn     0.196140000000     0.022020000000     0.196140000000     0.469969   
Zn       Zn     0.609330000000     0.609330000000     0.783290000000     0.469969   
Zn       Zn     0.196140000000     0.196140000000     0.022020000000     0.469969   
Zn       Zn     0.783290000000     0.609330000000     0.609330000000     0.469969   
Zn       Zn     0.022020000000     0.196140000000     0.196140000000     0.469969   
Zn       Zn     0.608790000000     0.608790000000     0.608790000000     0.469969   
Zn       Zn     0.196610000000     0.196610000000     0.196610000000     0.469969   
Zn       Zn     0.216710000000     0.390670000000     0.390670000000     0.469969   
Zn       Zn     0.977980000000     0.803860000000     0.803860000000     0.469969   
Zn       Zn     0.390670000000     0.390670000000     0.216710000000     0.469969   
Zn       Zn     0.803860000000     0.803860000000     0.977980000000     0.469969   
Zn       Zn     0.390670000000     0.216710000000     0.390670000000     0.469969   
Zn       Zn     0.803860000000     0.977980000000     0.803860000000     0.469969   
Zn       Zn     0.391210000000     0.391210000000     0.391210000000     0.469969   
Zn       Zn     0.803390000000     0.803390000000     0.803390000000     0.469969   
H        H      0.839300000000     0.055100000000     0.356700000000     0.0628684  
H        H      0.750900000000     0.965400000000     0.444800000000     0.0628684  
H        H      0.356700000000     0.839300000000     0.055100000000     0.0628684  
H        H      0.444800000000     0.750900000000     0.965400000000     0.0628684  
H        H      0.055100000000     0.356700000000     0.839300000000     0.0628684  
H        H      0.965400000000     0.444800000000     0.750900000000     0.0628684  
H        H      0.055100000000     0.839300000000     0.356700000000     0.0628684  
H        H      0.965400000000     0.750900000000     0.444800000000     0.0628684  
H        H      0.839300000000     0.356700000000     0.055100000000     0.0628684  
H        H      0.750900000000     0.444800000000     0.965400000000     0.0628684  
H        H      0.356700000000     0.055100000000     0.839300000000     0.0628684  
H        H      0.444800000000     0.965400000000     0.750900000000     0.0628684  
H        H      0.358500000000     0.055000000000     0.358500000000     0.0628684  
H        H      0.447600000000     0.966200000000     0.447600000000     0.0628684  
H        H      0.358000000000     0.839700000000     0.358000000000     0.0628684  
H        H      0.446300000000     0.751600000000     0.446300000000     0.0628684  
H        H      0.358500000000     0.358500000000     0.055000000000     0.0628684  
H        H      0.447600000000     0.447600000000     0.966200000000     0.0628684  
H        H      0.358000000000     0.358000000000     0.839700000000     0.0628684  
H        H      0.446300000000     0.446300000000     0.751600000000     0.0628684  
H        H      0.055000000000     0.358500000000     0.358500000000     0.0628684  
H        H      0.966200000000     0.447600000000     0.447600000000     0.0628684  
H        H      0.839700000000     0.358000000000     0.358000000000     0.0628684  
H        H      0.751600000000     0.446300000000     0.446300000000     0.0628684  
H        H      0.944900000000     0.160700000000     0.643300000000     0.0628684  
H        H      0.034600000000     0.249100000000     0.555200000000     0.0628684  
H        H      0.160700000000     0.643300000000     0.944900000000     0.0628684  
H        H      0.249100000000     0.555200000000     0.034600000000     0.0628684  
H        H      0.643300000000     0.944900000000     0.160700000000     0.0628684  
H        H      0.555200000000     0.034600000000     0.249100000000     0.0628684  
H        H      0.160700000000     0.944900000000     0.643300000000     0.0628684  
H        H      0.249100000000     0.034600000000     0.555200000000     0.0628684  
H        H      0.643300000000     0.160700000000     0.944900000000     0.0628684  
H        H      0.555200000000     0.249100000000     0.034600000000     0.0628684  
H        H      0.944900000000     0.643300000000     0.160700000000     0.0628684  
H        H      0.034600000000     0.555200000000     0.249100000000     0.0628684  
H        H      0.945000000000     0.641500000000     0.641500000000     0.0628684  
H        H      0.033800000000     0.552400000000     0.552400000000     0.0628684  
H        H      0.160300000000     0.642000000000     0.642000000000     0.0628684  
H        H      0.248400000000     0.553700000000     0.553700000000     0.0628684  
H        H      0.641500000000     0.641500000000     0.945000000000     0.0628684  
H        H      0.552400000000     0.552400000000     0.033800000000     0.0628684  
H        H      0.642000000000     0.642000000000     0.160300000000     0.0628684  
H        H      0.553700000000     0.553700000000     0.248400000000     0.0628684  
H        H      0.641500000000     0.945000000000     0.641500000000     0.0628684  
H        H      0.552400000000     0.033800000000     0.552400000000     0.0628684  
H        H      0.642000000000     0.160300000000     0.642000000000     0.0628684  
H        H      0.553700000000     0.248400000000     0.553700000000     0.0628684  
C        C      0.865570000000     0.993570000000     0.374470000000     0.056857   
C        C      0.812350000000     0.939450000000     0.427750000000     0.056857   
C        C      0.374470000000     0.865570000000     0.993570000000     0.056857   
C        C      0.427750000000     0.812350000000     0.939450000000     0.056857   
C        C      0.993570000000     0.374470000000     0.865570000000     0.056857   
C        C      0.939450000000     0.427750000000     0.812350000000     0.056857   
C        C      0.993570000000     0.865570000000     0.374470000000     0.056857   
C        C      0.939450000000     0.812350000000     0.427750000000     0.056857   
C        C      0.865570000000     0.374470000000     0.993570000000     0.056857   
C        C      0.812350000000     0.427750000000     0.939450000000     0.056857   
C        C      0.374470000000     0.993570000000     0.865570000000     0.056857   
C        C      0.427750000000     0.939450000000     0.812350000000     0.056857   
C        C      0.290930000000     0.014430000000     0.290930000000     0.056857   
C        C      0.349340000000     0.956140000000     0.349340000000     0.056857   
C        C      0.376010000000     0.993610000000     0.376010000000     0.056857   
C        C      0.429800000000     0.940000000000     0.429800000000     0.056857   
C        C      0.375760000000     0.865860000000     0.375760000000     0.056857   
C        C      0.429030000000     0.812930000000     0.429030000000     0.056857   
C        C      0.456530000000     0.848830000000     0.456530000000     0.056857   
C        C      0.514390000000     0.791190000000     0.514390000000     0.056857   
C        C      0.290930000000     0.290930000000     0.014430000000     0.056857   
C        C      0.349340000000     0.349340000000     0.956140000000     0.056857   
C        C      0.376010000000     0.376010000000     0.993610000000     0.056857   
C        C      0.429800000000     0.429800000000     0.940000000000     0.056857   
C        C      0.375760000000     0.375760000000     0.865860000000     0.056857   
C        C      0.429030000000     0.429030000000     0.812930000000     0.056857   
C        C      0.456530000000     0.456530000000     0.848830000000     0.056857   
C        C      0.514390000000     0.514390000000     0.791190000000     0.056857   
C        C      0.014430000000     0.290930000000     0.290930000000     0.056857   
C        C      0.956140000000     0.349340000000     0.349340000000     0.056857   
C        C      0.993610000000     0.376010000000     0.376010000000     0.056857   
C        C      0.940000000000     0.429800000000     0.429800000000     0.056857   
C        C      0.865860000000     0.375760000000     0.375760000000     0.056857   
C        C      0.812930000000     0.429030000000     0.429030000000     0.056857   
C        C      0.848830000000     0.456530000000     0.456530000000     0.056857   
C        C      0.791190000000     0.514390000000     0.514390000000     0.056857   
C        C      0.014600000000     0.014600000000     0.290900000000     0.056857   
C        C      0.956260000000     0.956260000000     0.348360000000     0.056857   
C        C      0.849250000000     0.849250000000     0.454950000000     0.056857   
C        C      0.790990000000     0.790990000000     0.514590000000     0.056857   
C        C      0.290900000000     0.014600000000     0.014600000000     0.056857   
C        C      0.348360000000     0.956260000000     0.956260000000     0.056857   
C        C      0.454950000000     0.849250000000     0.849250000000     0.056857   
C        C      0.514590000000     0.790990000000     0.790990000000     0.056857   
C        C      0.014600000000     0.290900000000     0.014600000000     0.056857   
C        C      0.956260000000     0.348360000000     0.956260000000     0.056857   
C        C      0.849250000000     0.454950000000     0.849250000000     0.056857   
C        C      0.790990000000     0.514590000000     0.790990000000     0.056857   
C        C      0.006430000000     0.134430000000     0.625530000000     0.056857   
C        C      0.060550000000     0.187650000000     0.572250000000     0.056857   
C        C      0.134430000000     0.625530000000     0.006430000000     0.056857   
C        C      0.187650000000     0.572250000000     0.060550000000     0.056857   
C        C      0.625530000000     0.006430000000     0.134430000000     0.056857   
C        C      0.572250000000     0.060550000000     0.187650000000     0.056857   
C        C      0.134430000000     0.006430000000     0.625530000000     0.056857   
C        C      0.187650000000     0.060550000000     0.572250000000     0.056857   
C        C      0.625530000000     0.134430000000     0.006430000000     0.056857   
C        C      0.572250000000     0.187650000000     0.060550000000     0.056857   
C        C      0.006430000000     0.625530000000     0.134430000000     0.056857   
C        C      0.060550000000     0.572250000000     0.187650000000     0.056857   
C        C      0.985570000000     0.709070000000     0.709070000000     0.056857   
C        C      0.043860000000     0.650660000000     0.650660000000     0.056857   
C        C      0.006390000000     0.623990000000     0.623990000000     0.056857   
C        C      0.060000000000     0.570200000000     0.570200000000     0.056857   
C        C      0.134140000000     0.624240000000     0.624240000000     0.056857   
C        C      0.187070000000     0.570970000000     0.570970000000     0.056857   
C        C      0.151170000000     0.543470000000     0.543470000000     0.056857   
C        C      0.208810000000     0.485610000000     0.485610000000     0.056857   
C        C      0.709070000000     0.709070000000     0.985570000000     0.056857   
C        C      0.650660000000     0.650660000000     0.043860000000     0.056857   
C        C      0.623990000000     0.623990000000     0.006390000000     0.056857   
C        C      0.570200000000     0.570200000000     0.060000000000     0.056857   
C        C      0.624240000000     0.624240000000     0.134140000000     0.056857   
C        C      0.570970000000     0.570970000000     0.187070000000     0.056857   
C        C      0.543470000000     0.543470000000     0.151170000000     0.056857   
C        C      0.485610000000     0.485610000000     0.208810000000     0.056857   
C        C      0.709070000000     0.985570000000     0.709070000000     0.056857   
C        C      0.650660000000     0.043860000000     0.650660000000     0.056857   
C        C      0.623990000000     0.006390000000     0.623990000000     0.056857   
C        C      0.570200000000     0.060000000000     0.570200000000     0.056857   
C        C      0.624240000000     0.134140000000     0.624240000000     0.056857   
C        C      0.570970000000     0.187070000000     0.570970000000     0.056857   
C        C      0.543470000000     0.151170000000     0.543470000000     0.056857   
C        C      0.485610000000     0.208810000000     0.485610000000     0.056857   
C        C      0.985400000000     0.985400000000     0.709100000000     0.056857   
C        C      0.043740000000     0.043740000000     0.651640000000     0.056857   
C        C      0.150750000000     0.150750000000     0.545050000000     0.056857   
C        C      0.209010000000     0.209010000000     0.485410000000     0.056857   
C        C      0.985400000000     0.709100000000     0.985400000000     0.056857   
C        C      0.043740000000     0.651640000000     0.043740000000     0.056857   
C        C      0.150750000000     0.545050000000     0.150750000000     0.056857   
C        C      0.209010000000     0.485410000000     0.209010000000     0.056857   
C        C      0.709100000000     0.985400000000     0.985400000000     0.056857   
C        C      0.651640000000     0.043740000000     0.043740000000     0.056857   
C        C      0.545050000000     0.150750000000     0.150750000000     0.056857   
C        C      0.485410000000     0.209010000000     0.209010000000     0.056857   
O        O      0.707870000000     0.829670000000     0.536770000000    -0.307605   
O        O      0.976150000000     0.097050000000     0.268350000000    -0.307605   
O        O      0.536770000000     0.707870000000     0.829670000000    -0.307605   
O        O      0.268350000000     0.976150000000     0.097050000000    -0.307605   
O        O      0.829670000000     0.536770000000     0.707870000000    -0.307605   
O        O      0.097050000000     0.268350000000     0.976150000000    -0.307605   
O        O      0.829670000000     0.707870000000     0.536770000000    -0.307605   
O        O      0.097050000000     0.976150000000     0.268350000000    -0.307605   
O        O      0.707870000000     0.536770000000     0.829670000000    -0.307605   
O        O      0.976150000000     0.268350000000     0.097050000000    -0.307605   
O        O      0.536770000000     0.829670000000     0.707870000000    -0.307605   
O        O      0.268350000000     0.097050000000     0.976150000000    -0.307605   
O        O      0.536960000000     0.829510000000     0.536960000000    -0.307605   
O        O      0.536250000000     0.708050000000     0.536250000000    -0.307605   
O        O      0.269270000000     0.097530000000     0.269270000000    -0.307605   
O        O      0.268600000000     0.976350000000     0.268600000000    -0.307605   
O        O      0.536960000000     0.536960000000     0.829510000000    -0.307605   
O        O      0.536250000000     0.536250000000     0.708050000000    -0.307605   
O        O      0.269270000000     0.269270000000     0.097530000000    -0.307605   
O        O      0.268600000000     0.268600000000     0.976350000000    -0.307605   
O        O      0.829510000000     0.536960000000     0.536960000000    -0.307605   
O        O      0.708050000000     0.536250000000     0.536250000000    -0.307605   
O        O      0.097530000000     0.269270000000     0.269270000000    -0.307605   
O        O      0.976350000000     0.268600000000     0.268600000000    -0.307605   
O        O      0.652530000000     0.652530000000     0.652530000000    -0.307605   
O        O      0.152740000000     0.152740000000     0.152740000000    -0.307605   
O        O      0.170330000000     0.292130000000     0.463230000000    -0.307605   
O        O      0.902950000000     0.023850000000     0.731650000000    -0.307605   
O        O      0.292130000000     0.463230000000     0.170330000000    -0.307605   
O        O      0.023850000000     0.731650000000     0.902950000000    -0.307605   
O        O      0.463230000000     0.170330000000     0.292130000000    -0.307605   
O        O      0.731650000000     0.902950000000     0.023850000000    -0.307605   
O        O      0.292130000000     0.170330000000     0.463230000000    -0.307605   
O        O      0.023850000000     0.902950000000     0.731650000000    -0.307605   
O        O      0.463230000000     0.292130000000     0.170330000000    -0.307605   
O        O      0.731650000000     0.023850000000     0.902950000000    -0.307605   
O        O      0.170330000000     0.463230000000     0.292130000000    -0.307605   
O        O      0.902950000000     0.731650000000     0.023850000000    -0.307605   
O        O      0.170490000000     0.463040000000     0.463040000000    -0.307605   
O        O      0.291950000000     0.463750000000     0.463750000000    -0.307605   
O        O      0.902470000000     0.730730000000     0.730730000000    -0.307605   
O        O      0.023650000000     0.731400000000     0.731400000000    -0.307605   
O        O      0.463040000000     0.463040000000     0.170490000000    -0.307605   
O        O      0.463750000000     0.463750000000     0.291950000000    -0.307605   
O        O      0.730730000000     0.730730000000     0.902470000000    -0.307605   
O        O      0.731400000000     0.731400000000     0.023650000000    -0.307605   
O        O      0.463040000000     0.170490000000     0.463040000000    -0.307605   
O        O      0.463750000000     0.291950000000     0.463750000000    -0.307605   
O        O      0.730730000000     0.902470000000     0.730730000000    -0.307605   
O        O      0.731400000000     0.023650000000     0.731400000000    -0.307605   
O        O      0.347470000000     0.347470000000     0.347470000000    -0.307605   
O        O      0.847260000000     0.847260000000     0.847260000000    -0.307605   


