data_HIFTOG01_original

_audit_creation_method RASPA-1.0
_audit_creation_date 2022-1-29
_audit_author_name 'Felipe Lopes de Oliveira <felipe.lopes.oliveira@ibm.com>'

_cell_length_a    18.3149
_cell_length_b    18.3149
_cell_length_c    18.3149
_cell_angle_alpha 60.3295
_cell_angle_beta  60.3295
_cell_angle_gamma 60.3295
_cell_volume      4376.47

_symmetry_cell_setting          triclinic
_symmetry_space_group_name_Hall 'P 1'
_symmetry_space_group_name_H-M  'P 1'
_symmetry_Int_Tables_number     1

_symmetry_equiv_pos_as_xyz 'x,y,z'

loop_
_atom_site_label
_atom_site_type_symbol
_atom_site_fract_x
_atom_site_fract_y
_atom_site_fract_z
_atom_site_charge
Zn       Zn     0.206090000000     0.206090000000     0.206090000000     0.475767   
Zn       Zn     0.793910000000     0.793910000000     0.793910000000     0.475767   
Zn       Zn     0.206770000000     0.379520000000     0.206770000000     0.475767   
Zn       Zn     0.206770000000     0.206770000000     0.379520000000     0.475767   
Zn       Zn     0.379520000000     0.206770000000     0.206770000000     0.475767   
Zn       Zn     0.620480000000     0.793230000000     0.793230000000     0.475767   
Zn       Zn     0.793230000000     0.793230000000     0.620480000000     0.475767   
Zn       Zn     0.793230000000     0.620480000000     0.793230000000     0.475767   
H        H      0.042600000000     0.343500000000     0.565300000000     0.0625728  
H        H      0.565300000000     0.042600000000     0.343500000000     0.0625728  
H        H      0.343500000000     0.565300000000     0.042600000000     0.0625728  
H        H      0.656500000000     0.957400000000     0.434700000000     0.0625728  
H        H      0.957400000000     0.434700000000     0.656500000000     0.0625728  
H        H      0.434700000000     0.656500000000     0.957400000000     0.0625728  
H        H      0.957400000000     0.656500000000     0.434700000000     0.0625728  
H        H      0.434700000000     0.957400000000     0.656500000000     0.0625728  
H        H      0.656500000000     0.434700000000     0.957400000000     0.0625728  
H        H      0.343500000000     0.042600000000     0.565300000000     0.0625728  
H        H      0.042600000000     0.565300000000     0.343500000000     0.0625728  
H        H      0.565300000000     0.343500000000     0.042600000000     0.0625728  
H        H      0.048800000000     0.558600000000     0.048800000000     0.0625728  
H        H      0.041700000000     0.344500000000     0.041700000000     0.0625728  
H        H      0.048800000000     0.048800000000     0.558600000000     0.0625728  
H        H      0.041700000000     0.041700000000     0.344500000000     0.0625728  
H        H      0.558600000000     0.048800000000     0.048800000000     0.0625728  
H        H      0.344500000000     0.041700000000     0.041700000000     0.0625728  
H        H      0.441400000000     0.951200000000     0.951200000000     0.0625728  
H        H      0.655500000000     0.958300000000     0.958300000000     0.0625728  
H        H      0.951200000000     0.951200000000     0.441400000000     0.0625728  
H        H      0.958300000000     0.958300000000     0.655500000000     0.0625728  
H        H      0.951200000000     0.441400000000     0.951200000000     0.0625728  
H        H      0.958300000000     0.655500000000     0.958300000000     0.0625728  
C        C      0.027700000000     0.405100000000     0.538700000000     0.0478445  
C        C      0.538700000000     0.027700000000     0.405100000000     0.0478445  
C        C      0.405100000000     0.538700000000     0.027700000000     0.0478445  
C        C      0.594900000000     0.972300000000     0.461300000000     0.0478445  
C        C      0.972300000000     0.461300000000     0.594900000000     0.0478445  
C        C      0.461300000000     0.594900000000     0.972300000000     0.0478445  
C        C      0.972300000000     0.594900000000     0.461300000000     0.0478445  
C        C      0.461300000000     0.972300000000     0.594900000000     0.0478445  
C        C      0.594900000000     0.461300000000     0.972300000000     0.0478445  
C        C      0.405100000000     0.027700000000     0.538700000000     0.0478445  
C        C      0.027700000000     0.538700000000     0.405100000000     0.0478445  
C        C      0.538700000000     0.405100000000     0.027700000000     0.0478445  
C        C      0.111300000000     0.390100000000     0.111300000000     0.0478445  
C        C      0.053900000000     0.444000000000     0.053900000000     0.0478445  
C        C      0.029400000000     0.535300000000     0.029400000000     0.0478445  
C        C      0.025200000000     0.406000000000     0.025200000000     0.0478445  
C        C      0.111300000000     0.111300000000     0.390100000000     0.0478445  
C        C      0.053900000000     0.053900000000     0.444000000000     0.0478445  
C        C      0.029400000000     0.029400000000     0.535300000000     0.0478445  
C        C      0.025200000000     0.025200000000     0.406000000000     0.0478445  
C        C      0.390100000000     0.111300000000     0.111300000000     0.0478445  
C        C      0.444000000000     0.053900000000     0.053900000000     0.0478445  
C        C      0.535300000000     0.029400000000     0.029400000000     0.0478445  
C        C      0.406000000000     0.025200000000     0.025200000000     0.0478445  
C        C      0.609900000000     0.888700000000     0.888700000000     0.0478445  
C        C      0.556000000000     0.946100000000     0.946100000000     0.0478445  
C        C      0.464700000000     0.970600000000     0.970600000000     0.0478445  
C        C      0.594000000000     0.974800000000     0.974800000000     0.0478445  
C        C      0.888700000000     0.888700000000     0.609900000000     0.0478445  
C        C      0.946100000000     0.946100000000     0.556000000000     0.0478445  
C        C      0.970600000000     0.970600000000     0.464700000000     0.0478445  
C        C      0.974800000000     0.974800000000     0.594000000000     0.0478445  
C        C      0.888700000000     0.609900000000     0.888700000000     0.0478445  
C        C      0.946100000000     0.556000000000     0.946100000000     0.0478445  
C        C      0.970600000000     0.464700000000     0.970600000000     0.0478445  
C        C      0.974800000000     0.594000000000     0.974800000000     0.0478445  
C        C      0.111700000000     0.389400000000     0.389400000000     0.0478445  
C        C      0.059900000000     0.442450000000     0.442450000000     0.0478445  
C        C      0.389400000000     0.111700000000     0.389400000000     0.0478445  
C        C      0.442450000000     0.059900000000     0.442450000000     0.0478445  
C        C      0.389400000000     0.389400000000     0.111700000000     0.0478445  
C        C      0.442450000000     0.442450000000     0.059900000000     0.0478445  
C        C      0.610600000000     0.888300000000     0.610600000000     0.0478445  
C        C      0.557550000000     0.940100000000     0.557550000000     0.0478445  
C        C      0.888300000000     0.610600000000     0.610600000000     0.0478445  
C        C      0.940100000000     0.557550000000     0.557550000000     0.0478445  
C        C      0.610600000000     0.610600000000     0.888300000000     0.0478445  
C        C      0.557550000000     0.557550000000     0.940100000000     0.0478445  
O        O      0.135290000000     0.427590000000     0.301190000000    -0.292478   
O        O      0.301190000000     0.135290000000     0.427590000000    -0.292478   
O        O      0.427590000000     0.301190000000     0.135290000000    -0.292478   
O        O      0.572410000000     0.864710000000     0.698810000000    -0.292478   
O        O      0.864710000000     0.698810000000     0.572410000000    -0.292478   
O        O      0.698810000000     0.572410000000     0.864710000000    -0.292478   
O        O      0.864710000000     0.572410000000     0.698810000000    -0.292478   
O        O      0.698810000000     0.864710000000     0.572410000000    -0.292478   
O        O      0.572410000000     0.698810000000     0.864710000000    -0.292478   
O        O      0.427590000000     0.135290000000     0.301190000000    -0.292478   
O        O      0.135290000000     0.301190000000     0.427590000000    -0.292478   
O        O      0.301190000000     0.427590000000     0.135290000000    -0.292478   
O        O      0.251530000000     0.251530000000     0.251530000000    -0.292478   
O        O      0.748470000000     0.748470000000     0.748470000000    -0.292478   
O        O      0.134100000000     0.302200000000     0.134100000000    -0.292478   
O        O      0.133800000000     0.428200000000     0.133800000000    -0.292478   
O        O      0.134100000000     0.134100000000     0.302200000000    -0.292478   
O        O      0.133800000000     0.133800000000     0.428200000000    -0.292478   
O        O      0.302200000000     0.134100000000     0.134100000000    -0.292478   
O        O      0.428200000000     0.133800000000     0.133800000000    -0.292478   
O        O      0.697800000000     0.865900000000     0.865900000000    -0.292478   
O        O      0.571800000000     0.866200000000     0.866200000000    -0.292478   
O        O      0.865900000000     0.865900000000     0.697800000000    -0.292478   
O        O      0.866200000000     0.866200000000     0.571800000000    -0.292478   
O        O      0.865900000000     0.697800000000     0.865900000000    -0.292478   
O        O      0.866200000000     0.571800000000     0.866200000000    -0.292478   


