data_HIFVOI_original

_audit_creation_method RASPA-1.0
_audit_creation_date 2022-1-31
_audit_author_name 'Felipe Lopes de Oliveira <felipe.lopes.oliveira@ibm.com>'

_cell_length_a    17.058
_cell_length_b    19.073
_cell_length_c    19.073
_cell_angle_alpha 90
_cell_angle_beta  90
_cell_angle_gamma 90
_cell_volume      6205.35

_symmetry_cell_setting          triclinic
_symmetry_space_group_name_Hall 'P 1'
_symmetry_space_group_name_H-M  'P 1'
_symmetry_Int_Tables_number     1

_symmetry_equiv_pos_as_xyz 'x,y,z'

loop_
_atom_site_label
_atom_site_type_symbol
_atom_site_fract_x
_atom_site_fract_y
_atom_site_fract_z
_atom_site_charge
Zn       Zn     0.823580000000     0.886120000000     0.334910000000     0.339809   
Zn       Zn     0.823580000000     0.113880000000     0.665090000000     0.339809   
Zn       Zn     0.323580000000     0.165090000000     0.386120000000     0.339809   
Zn       Zn     0.323580000000     0.834910000000     0.613880000000     0.339809   
Zn       Zn     0.676420000000     0.613880000000     0.834910000000     0.339809   
Zn       Zn     0.676420000000     0.386120000000     0.165090000000     0.339809   
Zn       Zn     0.176420000000     0.334910000000     0.886120000000     0.339809   
Zn       Zn     0.176420000000     0.665090000000     0.113880000000     0.339809   
Zn       Zn     0.176420000000     0.113880000000     0.665090000000     0.339809   
Zn       Zn     0.176420000000     0.886120000000     0.334910000000     0.339809   
Zn       Zn     0.676420000000     0.834910000000     0.613880000000     0.339809   
Zn       Zn     0.676420000000     0.165090000000     0.386120000000     0.339809   
Zn       Zn     0.323580000000     0.386120000000     0.165090000000     0.339809   
Zn       Zn     0.323580000000     0.613880000000     0.834910000000     0.339809   
Zn       Zn     0.823580000000     0.665090000000     0.113880000000     0.339809   
Zn       Zn     0.823580000000     0.334910000000     0.886120000000     0.339809   
H        H      0.928600000000     0.770300000000     0.406300000000     0.0147645  
H        H      0.691400000000     0.875700000000     0.215100000000     0.0147645  
H        H      0.856900000000     0.022700000000     0.237800000000     0.0147645  
H        H      0.711500000000     0.755200000000     0.365900000000     0.0147645  
H        H      0.718100000000     0.002900000000     0.397200000000     0.0147645  
H        H      0.928600000000     0.229700000000     0.593700000000     0.0147645  
H        H      0.691400000000     0.124300000000     0.784900000000     0.0147645  
H        H      0.856900000000     0.977300000000     0.762200000000     0.0147645  
H        H      0.711500000000     0.244800000000     0.634100000000     0.0147645  
H        H      0.718100000000     0.997100000000     0.602800000000     0.0147645  
H        H      0.428600000000     0.093700000000     0.270300000000     0.0147645  
H        H      0.191400000000     0.284900000000     0.375700000000     0.0147645  
H        H      0.356900000000     0.262200000000     0.522700000000     0.0147645  
H        H      0.211500000000     0.134100000000     0.255200000000     0.0147645  
H        H      0.218100000000     0.102800000000     0.502900000000     0.0147645  
H        H      0.428600000000     0.906300000000     0.729700000000     0.0147645  
H        H      0.191400000000     0.715100000000     0.624300000000     0.0147645  
H        H      0.356900000000     0.737800000000     0.477300000000     0.0147645  
H        H      0.211500000000     0.865900000000     0.744800000000     0.0147645  
H        H      0.218100000000     0.897200000000     0.497100000000     0.0147645  
H        H      0.571400000000     0.729700000000     0.906300000000     0.0147645  
H        H      0.808600000000     0.624300000000     0.715100000000     0.0147645  
H        H      0.643100000000     0.477300000000     0.737800000000     0.0147645  
H        H      0.788500000000     0.744800000000     0.865900000000     0.0147645  
H        H      0.781900000000     0.497100000000     0.897200000000     0.0147645  
H        H      0.571400000000     0.270300000000     0.093700000000     0.0147645  
H        H      0.808600000000     0.375700000000     0.284900000000     0.0147645  
H        H      0.643100000000     0.522700000000     0.262200000000     0.0147645  
H        H      0.788500000000     0.255200000000     0.134100000000     0.0147645  
H        H      0.781900000000     0.502900000000     0.102800000000     0.0147645  
H        H      0.071400000000     0.406300000000     0.770300000000     0.0147645  
H        H      0.308600000000     0.215100000000     0.875700000000     0.0147645  
H        H      0.143100000000     0.237800000000     0.022700000000     0.0147645  
H        H      0.288500000000     0.365900000000     0.755200000000     0.0147645  
H        H      0.281900000000     0.397200000000     0.002900000000     0.0147645  
H        H      0.071400000000     0.593700000000     0.229700000000     0.0147645  
H        H      0.308600000000     0.784900000000     0.124300000000     0.0147645  
H        H      0.143100000000     0.762200000000     0.977300000000     0.0147645  
H        H      0.288500000000     0.634100000000     0.244800000000     0.0147645  
H        H      0.281900000000     0.602800000000     0.997100000000     0.0147645  
H        H      0.071400000000     0.229700000000     0.593700000000     0.0147645  
H        H      0.308600000000     0.124300000000     0.784900000000     0.0147645  
H        H      0.143100000000     0.977300000000     0.762200000000     0.0147645  
H        H      0.288500000000     0.244800000000     0.634100000000     0.0147645  
H        H      0.281900000000     0.997100000000     0.602800000000     0.0147645  
H        H      0.071400000000     0.770300000000     0.406300000000     0.0147645  
H        H      0.308600000000     0.875700000000     0.215100000000     0.0147645  
H        H      0.143100000000     0.022700000000     0.237800000000     0.0147645  
H        H      0.288500000000     0.755200000000     0.365900000000     0.0147645  
H        H      0.281900000000     0.002900000000     0.397200000000     0.0147645  
H        H      0.571400000000     0.906300000000     0.729700000000     0.0147645  
H        H      0.808600000000     0.715100000000     0.624300000000     0.0147645  
H        H      0.643100000000     0.737800000000     0.477300000000     0.0147645  
H        H      0.788500000000     0.865900000000     0.744800000000     0.0147645  
H        H      0.781900000000     0.897200000000     0.497100000000     0.0147645  
H        H      0.571400000000     0.093700000000     0.270300000000     0.0147645  
H        H      0.808600000000     0.284900000000     0.375700000000     0.0147645  
H        H      0.643100000000     0.262200000000     0.522700000000     0.0147645  
H        H      0.788500000000     0.134100000000     0.255200000000     0.0147645  
H        H      0.781900000000     0.102800000000     0.502900000000     0.0147645  
H        H      0.428600000000     0.270300000000     0.093700000000     0.0147645  
H        H      0.191400000000     0.375700000000     0.284900000000     0.0147645  
H        H      0.356900000000     0.522700000000     0.262200000000     0.0147645  
H        H      0.211500000000     0.255200000000     0.134100000000     0.0147645  
H        H      0.218100000000     0.502900000000     0.102800000000     0.0147645  
H        H      0.428600000000     0.729700000000     0.906300000000     0.0147645  
H        H      0.191400000000     0.624300000000     0.715100000000     0.0147645  
H        H      0.356900000000     0.477300000000     0.737800000000     0.0147645  
H        H      0.211500000000     0.744800000000     0.865900000000     0.0147645  
H        H      0.218100000000     0.497100000000     0.897200000000     0.0147645  
H        H      0.928600000000     0.593700000000     0.229700000000     0.0147645  
H        H      0.691400000000     0.784900000000     0.124300000000     0.0147645  
H        H      0.856900000000     0.762200000000     0.977300000000     0.0147645  
H        H      0.711500000000     0.634100000000     0.244800000000     0.0147645  
H        H      0.718100000000     0.602800000000     0.997100000000     0.0147645  
H        H      0.928600000000     0.406300000000     0.770300000000     0.0147645  
H        H      0.691400000000     0.215100000000     0.875700000000     0.0147645  
H        H      0.856900000000     0.237800000000     0.022700000000     0.0147645  
H        H      0.711500000000     0.365900000000     0.755200000000     0.0147645  
H        H      0.718100000000     0.397200000000     0.002900000000     0.0147645  
H        H      0.000000000000     0.931900000000     0.303100000000     0.0147645  
H        H      0.000000000000     0.068100000000     0.696900000000     0.0147645  
H        H      0.500000000000     0.196900000000     0.431900000000     0.0147645  
H        H      0.500000000000     0.803100000000     0.568100000000     0.0147645  
H        H      0.500000000000     0.568100000000     0.803100000000     0.0147645  
H        H      0.500000000000     0.431900000000     0.196900000000     0.0147645  
H        H      0.000000000000     0.303100000000     0.931900000000     0.0147645  
H        H      0.000000000000     0.696900000000     0.068100000000     0.0147645  
H        H      0.873200000000     0.755700000000     0.244300000000     0.0147645  
H        H      0.873200000000     0.244300000000     0.755700000000     0.0147645  
H        H      0.373200000000     0.255700000000     0.255700000000     0.0147645  
H        H      0.373200000000     0.744300000000     0.744300000000     0.0147645  
H        H      0.626800000000     0.744300000000     0.744300000000     0.0147645  
H        H      0.626800000000     0.255700000000     0.255700000000     0.0147645  
H        H      0.126800000000     0.244300000000     0.755700000000     0.0147645  
H        H      0.126800000000     0.755700000000     0.244300000000     0.0147645  
C        C      0.960200000000     0.805800000000     0.388600000000     0.0386218  
C        C      0.730700000000     0.842700000000     0.207800000000     0.0386218  
C        C      0.822300000000     0.032700000000     0.274200000000     0.0386218  
C        C      0.714000000000     0.784600000000     0.404700000000     0.0386218  
C        C      0.748900000000     0.023100000000     0.362400000000     0.0386218  
C        C      0.960200000000     0.194200000000     0.611400000000     0.0386218  
C        C      0.730700000000     0.157300000000     0.792200000000     0.0386218  
C        C      0.822300000000     0.967300000000     0.725800000000     0.0386218  
C        C      0.714000000000     0.215400000000     0.595300000000     0.0386218  
C        C      0.748900000000     0.976900000000     0.637600000000     0.0386218  
C        C      0.460200000000     0.111400000000     0.305800000000     0.0386218  
C        C      0.230700000000     0.292200000000     0.342700000000     0.0386218  
C        C      0.322300000000     0.225800000000     0.532700000000     0.0386218  
C        C      0.214000000000     0.095300000000     0.284600000000     0.0386218  
C        C      0.248900000000     0.137600000000     0.523100000000     0.0386218  
C        C      0.460200000000     0.888600000000     0.694200000000     0.0386218  
C        C      0.230700000000     0.707800000000     0.657300000000     0.0386218  
C        C      0.322300000000     0.774200000000     0.467300000000     0.0386218  
C        C      0.214000000000     0.904700000000     0.715400000000     0.0386218  
C        C      0.248900000000     0.862400000000     0.476900000000     0.0386218  
C        C      0.539800000000     0.694200000000     0.888600000000     0.0386218  
C        C      0.769300000000     0.657300000000     0.707800000000     0.0386218  
C        C      0.677700000000     0.467300000000     0.774200000000     0.0386218  
C        C      0.786000000000     0.715400000000     0.904700000000     0.0386218  
C        C      0.751100000000     0.476900000000     0.862400000000     0.0386218  
C        C      0.539800000000     0.305800000000     0.111400000000     0.0386218  
C        C      0.769300000000     0.342700000000     0.292200000000     0.0386218  
C        C      0.677700000000     0.532700000000     0.225800000000     0.0386218  
C        C      0.786000000000     0.284600000000     0.095300000000     0.0386218  
C        C      0.751100000000     0.523100000000     0.137600000000     0.0386218  
C        C      0.039800000000     0.388600000000     0.805800000000     0.0386218  
C        C      0.269300000000     0.207800000000     0.842700000000     0.0386218  
C        C      0.177700000000     0.274200000000     0.032700000000     0.0386218  
C        C      0.286000000000     0.404700000000     0.784600000000     0.0386218  
C        C      0.251100000000     0.362400000000     0.023100000000     0.0386218  
C        C      0.039800000000     0.611400000000     0.194200000000     0.0386218  
C        C      0.269300000000     0.792200000000     0.157300000000     0.0386218  
C        C      0.177700000000     0.725800000000     0.967300000000     0.0386218  
C        C      0.286000000000     0.595300000000     0.215400000000     0.0386218  
C        C      0.251100000000     0.637600000000     0.976900000000     0.0386218  
C        C      0.039800000000     0.194200000000     0.611400000000     0.0386218  
C        C      0.269300000000     0.157300000000     0.792200000000     0.0386218  
C        C      0.177700000000     0.967300000000     0.725800000000     0.0386218  
C        C      0.286000000000     0.215400000000     0.595300000000     0.0386218  
C        C      0.251100000000     0.976900000000     0.637600000000     0.0386218  
C        C      0.039800000000     0.805800000000     0.388600000000     0.0386218  
C        C      0.269300000000     0.842700000000     0.207800000000     0.0386218  
C        C      0.177700000000     0.032700000000     0.274200000000     0.0386218  
C        C      0.286000000000     0.784600000000     0.404700000000     0.0386218  
C        C      0.251100000000     0.023100000000     0.362400000000     0.0386218  
C        C      0.539800000000     0.888600000000     0.694200000000     0.0386218  
C        C      0.769300000000     0.707800000000     0.657300000000     0.0386218  
C        C      0.677700000000     0.774200000000     0.467300000000     0.0386218  
C        C      0.786000000000     0.904700000000     0.715400000000     0.0386218  
C        C      0.751100000000     0.862400000000     0.476900000000     0.0386218  
C        C      0.539800000000     0.111400000000     0.305800000000     0.0386218  
C        C      0.769300000000     0.292200000000     0.342700000000     0.0386218  
C        C      0.677700000000     0.225800000000     0.532700000000     0.0386218  
C        C      0.786000000000     0.095300000000     0.284600000000     0.0386218  
C        C      0.751100000000     0.137600000000     0.523100000000     0.0386218  
C        C      0.460200000000     0.305800000000     0.111400000000     0.0386218  
C        C      0.230700000000     0.342700000000     0.292200000000     0.0386218  
C        C      0.322300000000     0.532700000000     0.225800000000     0.0386218  
C        C      0.214000000000     0.284600000000     0.095300000000     0.0386218  
C        C      0.248900000000     0.523100000000     0.137600000000     0.0386218  
C        C      0.460200000000     0.694200000000     0.888600000000     0.0386218  
C        C      0.230700000000     0.657300000000     0.707800000000     0.0386218  
C        C      0.322300000000     0.467300000000     0.774200000000     0.0386218  
C        C      0.214000000000     0.715400000000     0.904700000000     0.0386218  
C        C      0.248900000000     0.476900000000     0.862400000000     0.0386218  
C        C      0.960200000000     0.611400000000     0.194200000000     0.0386218  
C        C      0.730700000000     0.792200000000     0.157300000000     0.0386218  
C        C      0.822300000000     0.725800000000     0.967300000000     0.0386218  
C        C      0.714000000000     0.595300000000     0.215400000000     0.0386218  
C        C      0.748900000000     0.637600000000     0.976900000000     0.0386218  
C        C      0.960200000000     0.388600000000     0.805800000000     0.0386218  
C        C      0.730700000000     0.207800000000     0.842700000000     0.0386218  
C        C      0.822300000000     0.274200000000     0.032700000000     0.0386218  
C        C      0.714000000000     0.404700000000     0.784600000000     0.0386218  
C        C      0.748900000000     0.362400000000     0.023100000000     0.0386218  
C        C      0.000000000000     0.894600000000     0.334500000000     0.0386218  
C        C      0.000000000000     0.105400000000     0.665500000000     0.0386218  
C        C      0.500000000000     0.165500000000     0.394600000000     0.0386218  
C        C      0.500000000000     0.834500000000     0.605400000000     0.0386218  
C        C      0.500000000000     0.605400000000     0.834500000000     0.0386218  
C        C      0.500000000000     0.394600000000     0.165500000000     0.0386218  
C        C      0.000000000000     0.334500000000     0.894600000000     0.0386218  
C        C      0.000000000000     0.665500000000     0.105400000000     0.0386218  
C        C      0.831500000000     0.777900000000     0.222100000000     0.0386218  
C        C      0.831500000000     0.222100000000     0.777900000000     0.0386218  
C        C      0.331500000000     0.277900000000     0.277900000000     0.0386218  
C        C      0.331500000000     0.722100000000     0.722100000000     0.0386218  
C        C      0.668500000000     0.722100000000     0.722100000000     0.0386218  
C        C      0.668500000000     0.277900000000     0.277900000000     0.0386218  
C        C      0.168500000000     0.222100000000     0.777900000000     0.0386218  
C        C      0.168500000000     0.777900000000     0.222100000000     0.0386218  
N        N      0.934300000000     0.865800000000     0.358700000000    -0.165032   
N        N      0.798700000000     0.836600000000     0.246100000000    -0.165032   
N        N      0.800400000000     0.987000000000     0.325000000000    -0.165032   
N        N      0.754800000000     0.846000000000     0.409200000000    -0.165032   
N        N      0.934300000000     0.134200000000     0.641300000000    -0.165032   
N        N      0.798700000000     0.163400000000     0.753900000000    -0.165032   
N        N      0.800400000000     0.013000000000     0.675000000000    -0.165032   
N        N      0.754800000000     0.154000000000     0.590800000000    -0.165032   
N        N      0.434300000000     0.141300000000     0.365800000000    -0.165032   
N        N      0.298700000000     0.253900000000     0.336600000000    -0.165032   
N        N      0.300400000000     0.175000000000     0.487000000000    -0.165032   
N        N      0.254800000000     0.090800000000     0.346000000000    -0.165032   
N        N      0.434300000000     0.858700000000     0.634200000000    -0.165032   
N        N      0.298700000000     0.746100000000     0.663400000000    -0.165032   
N        N      0.300400000000     0.825000000000     0.513000000000    -0.165032   
N        N      0.254800000000     0.909200000000     0.654000000000    -0.165032   
N        N      0.565700000000     0.634200000000     0.858700000000    -0.165032   
N        N      0.701300000000     0.663400000000     0.746100000000    -0.165032   
N        N      0.699600000000     0.513000000000     0.825000000000    -0.165032   
N        N      0.745200000000     0.654000000000     0.909200000000    -0.165032   
N        N      0.565700000000     0.365800000000     0.141300000000    -0.165032   
N        N      0.701300000000     0.336600000000     0.253900000000    -0.165032   
N        N      0.699600000000     0.487000000000     0.175000000000    -0.165032   
N        N      0.745200000000     0.346000000000     0.090800000000    -0.165032   
N        N      0.065700000000     0.358700000000     0.865800000000    -0.165032   
N        N      0.201300000000     0.246100000000     0.836600000000    -0.165032   
N        N      0.199600000000     0.325000000000     0.987000000000    -0.165032   
N        N      0.245200000000     0.409200000000     0.846000000000    -0.165032   
N        N      0.065700000000     0.641300000000     0.134200000000    -0.165032   
N        N      0.201300000000     0.753900000000     0.163400000000    -0.165032   
N        N      0.199600000000     0.675000000000     0.013000000000    -0.165032   
N        N      0.245200000000     0.590800000000     0.154000000000    -0.165032   
N        N      0.065700000000     0.134200000000     0.641300000000    -0.165032   
N        N      0.201300000000     0.163400000000     0.753900000000    -0.165032   
N        N      0.199600000000     0.013000000000     0.675000000000    -0.165032   
N        N      0.245200000000     0.154000000000     0.590800000000    -0.165032   
N        N      0.065700000000     0.865800000000     0.358700000000    -0.165032   
N        N      0.201300000000     0.836600000000     0.246100000000    -0.165032   
N        N      0.199600000000     0.987000000000     0.325000000000    -0.165032   
N        N      0.245200000000     0.846000000000     0.409200000000    -0.165032   
N        N      0.565700000000     0.858700000000     0.634200000000    -0.165032   
N        N      0.701300000000     0.746100000000     0.663400000000    -0.165032   
N        N      0.699600000000     0.825000000000     0.513000000000    -0.165032   
N        N      0.745200000000     0.909200000000     0.654000000000    -0.165032   
N        N      0.565700000000     0.141300000000     0.365800000000    -0.165032   
N        N      0.701300000000     0.253900000000     0.336600000000    -0.165032   
N        N      0.699600000000     0.175000000000     0.487000000000    -0.165032   
N        N      0.745200000000     0.090800000000     0.346000000000    -0.165032   
N        N      0.434300000000     0.365800000000     0.141300000000    -0.165032   
N        N      0.298700000000     0.336600000000     0.253900000000    -0.165032   
N        N      0.300400000000     0.487000000000     0.175000000000    -0.165032   
N        N      0.254800000000     0.346000000000     0.090800000000    -0.165032   
N        N      0.434300000000     0.634200000000     0.858700000000    -0.165032   
N        N      0.298700000000     0.663400000000     0.746100000000    -0.165032   
N        N      0.300400000000     0.513000000000     0.825000000000    -0.165032   
N        N      0.254800000000     0.654000000000     0.909200000000    -0.165032   
N        N      0.934300000000     0.641300000000     0.134200000000    -0.165032   
N        N      0.798700000000     0.753900000000     0.163400000000    -0.165032   
N        N      0.800400000000     0.675000000000     0.013000000000    -0.165032   
N        N      0.754800000000     0.590800000000     0.154000000000    -0.165032   
N        N      0.934300000000     0.358700000000     0.865800000000    -0.165032   
N        N      0.798700000000     0.246100000000     0.836600000000    -0.165032   
N        N      0.800400000000     0.325000000000     0.987000000000    -0.165032   
N        N      0.754800000000     0.409200000000     0.846000000000    -0.165032   


