data_HIFVUO_original

_audit_creation_method RASPA-1.0
_audit_creation_date 2022-1-30
_audit_author_name 'Felipe Lopes de Oliveira <felipe.lopes.oliveira@ibm.com>'

_cell_length_a    18.389
_cell_length_b    18.389
_cell_length_c    19.129
_cell_angle_alpha 90
_cell_angle_beta  90
_cell_angle_gamma 90
_cell_volume      6468.57

_symmetry_cell_setting          triclinic
_symmetry_space_group_name_Hall 'P 1'
_symmetry_space_group_name_H-M  'P 1'
_symmetry_Int_Tables_number     1

_symmetry_equiv_pos_as_xyz 'x,y,z'

loop_
_atom_site_label
_atom_site_type_symbol
_atom_site_fract_x
_atom_site_fract_y
_atom_site_fract_z
_atom_site_charge
Zn       Zn     0.684290000000     0.118130000000     0.406940000000     0.341894   
Zn       Zn     0.631870000000     0.934290000000     0.656940000000     0.341894   
Zn       Zn     0.184290000000     0.618130000000     0.906940000000     0.341894   
Zn       Zn     0.131870000000     0.434290000000     0.156940000000     0.341894   
Zn       Zn     0.368130000000     0.565710000000     0.656940000000     0.341894   
Zn       Zn     0.815710000000     0.881870000000     0.906940000000     0.341894   
Zn       Zn     0.868130000000     0.065710000000     0.156940000000     0.341894   
Zn       Zn     0.315710000000     0.381870000000     0.406940000000     0.341894   
Zn       Zn     0.315710000000     0.881870000000     0.593060000000     0.341894   
Zn       Zn     0.368130000000     0.065710000000     0.343060000000     0.341894   
Zn       Zn     0.815710000000     0.381870000000     0.093060000000     0.341894   
Zn       Zn     0.868130000000     0.565710000000     0.843060000000     0.341894   
Zn       Zn     0.631870000000     0.434290000000     0.343060000000     0.341894   
Zn       Zn     0.184290000000     0.118130000000     0.093060000000     0.341894   
Zn       Zn     0.131870000000     0.934290000000     0.843060000000     0.341894   
Zn       Zn     0.684290000000     0.618130000000     0.593060000000     0.341894   
H        H      0.610800000000     0.016000000000     0.514100000000     0.0129212  
H        H      0.734000000000     0.860800000000     0.764100000000     0.0129212  
H        H      0.110800000000     0.516000000000     0.014100000000     0.0129212  
H        H      0.234000000000     0.360800000000     0.264100000000     0.0129212  
H        H      0.266000000000     0.639200000000     0.764100000000     0.0129212  
H        H      0.889200000000     0.984000000000     0.014100000000     0.0129212  
H        H      0.766000000000     0.139200000000     0.264100000000     0.0129212  
H        H      0.389200000000     0.484000000000     0.514100000000     0.0129212  
H        H      0.389200000000     0.984000000000     0.485900000000     0.0129212  
H        H      0.266000000000     0.139200000000     0.235900000000     0.0129212  
H        H      0.889200000000     0.484000000000     0.985900000000     0.0129212  
H        H      0.766000000000     0.639200000000     0.735900000000     0.0129212  
H        H      0.734000000000     0.360800000000     0.235900000000     0.0129212  
H        H      0.110800000000     0.016000000000     0.985900000000     0.0129212  
H        H      0.234000000000     0.860800000000     0.735900000000     0.0129212  
H        H      0.610800000000     0.516000000000     0.485900000000     0.0129212  
H        H      0.794700000000     0.110900000000     0.540100000000     0.0129212  
H        H      0.639100000000     0.044700000000     0.790100000000     0.0129212  
H        H      0.294700000000     0.610900000000     0.040100000000     0.0129212  
H        H      0.139100000000     0.544700000000     0.290100000000     0.0129212  
H        H      0.360900000000     0.455300000000     0.790100000000     0.0129212  
H        H      0.705300000000     0.889100000000     0.040100000000     0.0129212  
H        H      0.860900000000     0.955300000000     0.290100000000     0.0129212  
H        H      0.205300000000     0.389100000000     0.540100000000     0.0129212  
H        H      0.205300000000     0.889100000000     0.459900000000     0.0129212  
H        H      0.360900000000     0.955300000000     0.209900000000     0.0129212  
H        H      0.705300000000     0.389100000000     0.959900000000     0.0129212  
H        H      0.860900000000     0.455300000000     0.709900000000     0.0129212  
H        H      0.639100000000     0.544700000000     0.209900000000     0.0129212  
H        H      0.294700000000     0.110900000000     0.959900000000     0.0129212  
H        H      0.139100000000     0.044700000000     0.709900000000     0.0129212  
H        H      0.794700000000     0.610900000000     0.459900000000     0.0129212  
H        H      0.766800000000     0.045800000000     0.645200000000     0.0129212  
H        H      0.704200000000     0.016800000000     0.895200000000     0.0129212  
H        H      0.266800000000     0.545800000000     0.145200000000     0.0129212  
H        H      0.204200000000     0.516800000000     0.395200000000     0.0129212  
H        H      0.295800000000     0.483200000000     0.895200000000     0.0129212  
H        H      0.733200000000     0.954200000000     0.145200000000     0.0129212  
H        H      0.795800000000     0.983200000000     0.395200000000     0.0129212  
H        H      0.233200000000     0.454200000000     0.645200000000     0.0129212  
H        H      0.233200000000     0.954200000000     0.354800000000     0.0129212  
H        H      0.295800000000     0.983200000000     0.104800000000     0.0129212  
H        H      0.733200000000     0.454200000000     0.854800000000     0.0129212  
H        H      0.795800000000     0.483200000000     0.604800000000     0.0129212  
H        H      0.704200000000     0.516800000000     0.104800000000     0.0129212  
H        H      0.266800000000     0.045800000000     0.854800000000     0.0129212  
H        H      0.204200000000     0.016800000000     0.604800000000     0.0129212  
H        H      0.766800000000     0.545800000000     0.354800000000     0.0129212  
H        H      0.511400000000     0.137400000000     0.406700000000     0.0129212  
H        H      0.612600000000     0.761400000000     0.656700000000     0.0129212  
H        H      0.011400000000     0.637400000000     0.906700000000     0.0129212  
H        H      0.112600000000     0.261400000000     0.156700000000     0.0129212  
H        H      0.387400000000     0.738600000000     0.656700000000     0.0129212  
H        H      0.988600000000     0.862600000000     0.906700000000     0.0129212  
H        H      0.887400000000     0.238600000000     0.156700000000     0.0129212  
H        H      0.488600000000     0.362600000000     0.406700000000     0.0129212  
H        H      0.488600000000     0.862600000000     0.593300000000     0.0129212  
H        H      0.387400000000     0.238600000000     0.343300000000     0.0129212  
H        H      0.988600000000     0.362600000000     0.093300000000     0.0129212  
H        H      0.887400000000     0.738600000000     0.843300000000     0.0129212  
H        H      0.612600000000     0.261400000000     0.343300000000     0.0129212  
H        H      0.011400000000     0.137400000000     0.093300000000     0.0129212  
H        H      0.112600000000     0.761400000000     0.843300000000     0.0129212  
H        H      0.511400000000     0.637400000000     0.593300000000     0.0129212  
H        H      0.626600000000     0.996600000000     0.310900000000     0.0129212  
H        H      0.753400000000     0.876600000000     0.560900000000     0.0129212  
H        H      0.126600000000     0.496600000000     0.810900000000     0.0129212  
H        H      0.253400000000     0.376600000000     0.060900000000     0.0129212  
H        H      0.246600000000     0.623400000000     0.560900000000     0.0129212  
H        H      0.873400000000     0.003400000000     0.810900000000     0.0129212  
H        H      0.746600000000     0.123400000000     0.060900000000     0.0129212  
H        H      0.373400000000     0.503400000000     0.310900000000     0.0129212  
H        H      0.373400000000     0.003400000000     0.689100000000     0.0129212  
H        H      0.246600000000     0.123400000000     0.439100000000     0.0129212  
H        H      0.873400000000     0.503400000000     0.189100000000     0.0129212  
H        H      0.746600000000     0.623400000000     0.939100000000     0.0129212  
H        H      0.753400000000     0.376600000000     0.439100000000     0.0129212  
H        H      0.126600000000     0.996600000000     0.189100000000     0.0129212  
H        H      0.253400000000     0.876600000000     0.939100000000     0.0129212  
H        H      0.626600000000     0.496600000000     0.689100000000     0.0129212  
H        H      0.497300000000     0.974300000000     0.278700000000     0.0129212  
H        H      0.775700000000     0.747300000000     0.528700000000     0.0129212  
H        H      0.997300000000     0.474300000000     0.778700000000     0.0129212  
H        H      0.275700000000     0.247300000000     0.028700000000     0.0129212  
H        H      0.224300000000     0.752700000000     0.528700000000     0.0129212  
H        H      0.002700000000     0.025700000000     0.778700000000     0.0129212  
H        H      0.724300000000     0.252700000000     0.028700000000     0.0129212  
H        H      0.502700000000     0.525700000000     0.278700000000     0.0129212  
H        H      0.502700000000     0.025700000000     0.721300000000     0.0129212  
H        H      0.224300000000     0.252700000000     0.471300000000     0.0129212  
H        H      0.002700000000     0.525700000000     0.221300000000     0.0129212  
H        H      0.724300000000     0.752700000000     0.971300000000     0.0129212  
H        H      0.775700000000     0.247300000000     0.471300000000     0.0129212  
H        H      0.997300000000     0.974300000000     0.221300000000     0.0129212  
H        H      0.275700000000     0.747300000000     0.971300000000     0.0129212  
H        H      0.497300000000     0.474300000000     0.721300000000     0.0129212  
C        C      0.653200000000     0.033500000000     0.534700000000     0.0434688  
C        C      0.716500000000     0.903200000000     0.784700000000     0.0434688  
C        C      0.153200000000     0.533500000000     0.034700000000     0.0434688  
C        C      0.216500000000     0.403200000000     0.284700000000     0.0434688  
C        C      0.283500000000     0.596800000000     0.784700000000     0.0434688  
C        C      0.846800000000     0.966500000000     0.034700000000     0.0434688  
C        C      0.783500000000     0.096800000000     0.284700000000     0.0434688  
C        C      0.346800000000     0.466500000000     0.534700000000     0.0434688  
C        C      0.346800000000     0.966500000000     0.465300000000     0.0434688  
C        C      0.283500000000     0.096800000000     0.215300000000     0.0434688  
C        C      0.846800000000     0.466500000000     0.965300000000     0.0434688  
C        C      0.783500000000     0.596800000000     0.715300000000     0.0434688  
C        C      0.716500000000     0.403200000000     0.215300000000     0.0434688  
C        C      0.153200000000     0.033500000000     0.965300000000     0.0434688  
C        C      0.216500000000     0.903200000000     0.715300000000     0.0434688  
C        C      0.653200000000     0.533500000000     0.465300000000     0.0434688  
C        C      0.752200000000     0.084800000000     0.548200000000     0.0434688  
C        C      0.665200000000     0.002200000000     0.798200000000     0.0434688  
C        C      0.252200000000     0.584800000000     0.048200000000     0.0434688  
C        C      0.165200000000     0.502200000000     0.298200000000     0.0434688  
C        C      0.334800000000     0.497800000000     0.798200000000     0.0434688  
C        C      0.747800000000     0.915200000000     0.048200000000     0.0434688  
C        C      0.834800000000     0.997800000000     0.298200000000     0.0434688  
C        C      0.247800000000     0.415200000000     0.548200000000     0.0434688  
C        C      0.247800000000     0.915200000000     0.451800000000     0.0434688  
C        C      0.334800000000     0.997800000000     0.201800000000     0.0434688  
C        C      0.747800000000     0.415200000000     0.951800000000     0.0434688  
C        C      0.834800000000     0.497800000000     0.701800000000     0.0434688  
C        C      0.665200000000     0.502200000000     0.201800000000     0.0434688  
C        C      0.252200000000     0.084800000000     0.951800000000     0.0434688  
C        C      0.165200000000     0.002200000000     0.701800000000     0.0434688  
C        C      0.752200000000     0.584800000000     0.451800000000     0.0434688  
C        C      0.737400000000     0.047700000000     0.605700000000     0.0434688  
C        C      0.702300000000     0.987400000000     0.855700000000     0.0434688  
C        C      0.237400000000     0.547700000000     0.105700000000     0.0434688  
C        C      0.202300000000     0.487400000000     0.355700000000     0.0434688  
C        C      0.297700000000     0.512600000000     0.855700000000     0.0434688  
C        C      0.762600000000     0.952300000000     0.105700000000     0.0434688  
C        C      0.797700000000     0.012600000000     0.355700000000     0.0434688  
C        C      0.262600000000     0.452300000000     0.605700000000     0.0434688  
C        C      0.262600000000     0.952300000000     0.394300000000     0.0434688  
C        C      0.297700000000     0.012600000000     0.144300000000     0.0434688  
C        C      0.762600000000     0.452300000000     0.894300000000     0.0434688  
C        C      0.797700000000     0.512600000000     0.644300000000     0.0434688  
C        C      0.702300000000     0.487400000000     0.144300000000     0.0434688  
C        C      0.237400000000     0.047700000000     0.894300000000     0.0434688  
C        C      0.202300000000     0.987400000000     0.644300000000     0.0434688  
C        C      0.737400000000     0.547700000000     0.394300000000     0.0434688  
C        C      0.524400000000     0.099400000000     0.377100000000     0.0434688  
C        C      0.650600000000     0.774400000000     0.627100000000     0.0434688  
C        C      0.024400000000     0.599400000000     0.877100000000     0.0434688  
C        C      0.150600000000     0.274400000000     0.127100000000     0.0434688  
C        C      0.349400000000     0.725600000000     0.627100000000     0.0434688  
C        C      0.975600000000     0.900600000000     0.877100000000     0.0434688  
C        C      0.849400000000     0.225600000000     0.127100000000     0.0434688  
C        C      0.475600000000     0.400600000000     0.377100000000     0.0434688  
C        C      0.475600000000     0.900600000000     0.622900000000     0.0434688  
C        C      0.349400000000     0.225600000000     0.372900000000     0.0434688  
C        C      0.975600000000     0.400600000000     0.122900000000     0.0434688  
C        C      0.849400000000     0.725600000000     0.872900000000     0.0434688  
C        C      0.650600000000     0.274400000000     0.372900000000     0.0434688  
C        C      0.024400000000     0.099400000000     0.122900000000     0.0434688  
C        C      0.150600000000     0.774400000000     0.872900000000     0.0434688  
C        C      0.524400000000     0.599400000000     0.622900000000     0.0434688  
C        C      0.587100000000     0.024100000000     0.326000000000     0.0434688  
C        C      0.725900000000     0.837100000000     0.576000000000     0.0434688  
C        C      0.087100000000     0.524100000000     0.826000000000     0.0434688  
C        C      0.225900000000     0.337100000000     0.076000000000     0.0434688  
C        C      0.274100000000     0.662900000000     0.576000000000     0.0434688  
C        C      0.912900000000     0.975900000000     0.826000000000     0.0434688  
C        C      0.774100000000     0.162900000000     0.076000000000     0.0434688  
C        C      0.412900000000     0.475900000000     0.326000000000     0.0434688  
C        C      0.412900000000     0.975900000000     0.674000000000     0.0434688  
C        C      0.274100000000     0.162900000000     0.424000000000     0.0434688  
C        C      0.912900000000     0.475900000000     0.174000000000     0.0434688  
C        C      0.774100000000     0.662900000000     0.924000000000     0.0434688  
C        C      0.725900000000     0.337100000000     0.424000000000     0.0434688  
C        C      0.087100000000     0.024100000000     0.174000000000     0.0434688  
C        C      0.225900000000     0.837100000000     0.924000000000     0.0434688  
C        C      0.587100000000     0.524100000000     0.674000000000     0.0434688  
C        C      0.514700000000     0.010500000000     0.308300000000     0.0434688  
C        C      0.739500000000     0.764700000000     0.558300000000     0.0434688  
C        C      0.014700000000     0.510500000000     0.808300000000     0.0434688  
C        C      0.239500000000     0.264700000000     0.058300000000     0.0434688  
C        C      0.260500000000     0.735300000000     0.558300000000     0.0434688  
C        C      0.985300000000     0.989500000000     0.808300000000     0.0434688  
C        C      0.760500000000     0.235300000000     0.058300000000     0.0434688  
C        C      0.485300000000     0.489500000000     0.308300000000     0.0434688  
C        C      0.485300000000     0.989500000000     0.691700000000     0.0434688  
C        C      0.260500000000     0.235300000000     0.441700000000     0.0434688  
C        C      0.985300000000     0.489500000000     0.191700000000     0.0434688  
C        C      0.760500000000     0.735300000000     0.941700000000     0.0434688  
C        C      0.739500000000     0.264700000000     0.441700000000     0.0434688  
C        C      0.014700000000     0.010500000000     0.191700000000     0.0434688  
C        C      0.239500000000     0.764700000000     0.941700000000     0.0434688  
C        C      0.514700000000     0.510500000000     0.691700000000     0.0434688  
N        N      0.695300000000     0.078800000000     0.502500000000    -0.170058   
N        N      0.671200000000     0.945300000000     0.752500000000    -0.170058   
N        N      0.195300000000     0.578800000000     0.002500000000    -0.170058   
N        N      0.171200000000     0.445300000000     0.252500000000    -0.170058   
N        N      0.328800000000     0.554700000000     0.752500000000    -0.170058   
N        N      0.804700000000     0.921200000000     0.002500000000    -0.170058   
N        N      0.828800000000     0.054700000000     0.252500000000    -0.170058   
N        N      0.304700000000     0.421200000000     0.502500000000    -0.170058   
N        N      0.304700000000     0.921200000000     0.497500000000    -0.170058   
N        N      0.328800000000     0.054700000000     0.247500000000    -0.170058   
N        N      0.804700000000     0.421200000000     0.997500000000    -0.170058   
N        N      0.828800000000     0.554700000000     0.747500000000    -0.170058   
N        N      0.671200000000     0.445300000000     0.247500000000    -0.170058   
N        N      0.195300000000     0.078800000000     0.997500000000    -0.170058   
N        N      0.171200000000     0.945300000000     0.747500000000    -0.170058   
N        N      0.695300000000     0.578800000000     0.497500000000    -0.170058   
N        N      0.673100000000     0.012900000000     0.598400000000    -0.170058   
N        N      0.737100000000     0.923100000000     0.848400000000    -0.170058   
N        N      0.173100000000     0.512900000000     0.098400000000    -0.170058   
N        N      0.237100000000     0.423100000000     0.348400000000    -0.170058   
N        N      0.262900000000     0.576900000000     0.848400000000    -0.170058   
N        N      0.826900000000     0.987100000000     0.098400000000    -0.170058   
N        N      0.762900000000     0.076900000000     0.348400000000    -0.170058   
N        N      0.326900000000     0.487100000000     0.598400000000    -0.170058   
N        N      0.326900000000     0.987100000000     0.401600000000    -0.170058   
N        N      0.262900000000     0.076900000000     0.151600000000    -0.170058   
N        N      0.826900000000     0.487100000000     0.901600000000    -0.170058   
N        N      0.762900000000     0.576900000000     0.651600000000    -0.170058   
N        N      0.737100000000     0.423100000000     0.151600000000    -0.170058   
N        N      0.173100000000     0.012900000000     0.901600000000    -0.170058   
N        N      0.237100000000     0.923100000000     0.651600000000    -0.170058   
N        N      0.673100000000     0.512900000000     0.401600000000    -0.170058   
N        N      0.591700000000     0.081400000000     0.367200000000    -0.170058   
N        N      0.668600000000     0.841700000000     0.617200000000    -0.170058   
N        N      0.091700000000     0.581400000000     0.867200000000    -0.170058   
N        N      0.168600000000     0.341700000000     0.117200000000    -0.170058   
N        N      0.331400000000     0.658300000000     0.617200000000    -0.170058   
N        N      0.908300000000     0.918600000000     0.867200000000    -0.170058   
N        N      0.831400000000     0.158300000000     0.117200000000    -0.170058   
N        N      0.408300000000     0.418600000000     0.367200000000    -0.170058   
N        N      0.408300000000     0.918600000000     0.632800000000    -0.170058   
N        N      0.331400000000     0.158300000000     0.382800000000    -0.170058   
N        N      0.908300000000     0.418600000000     0.132800000000    -0.170058   
N        N      0.831400000000     0.658300000000     0.882800000000    -0.170058   
N        N      0.668600000000     0.341700000000     0.382800000000    -0.170058   
N        N      0.091700000000     0.081400000000     0.132800000000    -0.170058   
N        N      0.168600000000     0.841700000000     0.882800000000    -0.170058   
N        N      0.591700000000     0.581400000000     0.632800000000    -0.170058   
N        N      0.475300000000     0.060800000000     0.343100000000    -0.170058   
N        N      0.689200000000     0.725300000000     0.593100000000    -0.170058   
N        N      0.975300000000     0.560800000000     0.843100000000    -0.170058   
N        N      0.189200000000     0.225300000000     0.093100000000    -0.170058   
N        N      0.310800000000     0.774700000000     0.593100000000    -0.170058   
N        N      0.024700000000     0.939200000000     0.843100000000    -0.170058   
N        N      0.810800000000     0.274700000000     0.093100000000    -0.170058   
N        N      0.524700000000     0.439200000000     0.343100000000    -0.170058   
N        N      0.524700000000     0.939200000000     0.656900000000    -0.170058   
N        N      0.310800000000     0.274700000000     0.406900000000    -0.170058   
N        N      0.024700000000     0.439200000000     0.156900000000    -0.170058   
N        N      0.810800000000     0.774700000000     0.906900000000    -0.170058   
N        N      0.689200000000     0.225300000000     0.406900000000    -0.170058   
N        N      0.975300000000     0.060800000000     0.156900000000    -0.170058   
N        N      0.189200000000     0.725300000000     0.906900000000    -0.170058   
N        N      0.475300000000     0.560800000000     0.656900000000    -0.170058   


