data_HIFWAV_original

_audit_creation_method RASPA-1.0
_audit_creation_date 2022-1-29
_audit_author_name 'Felipe Lopes de Oliveira <felipe.lopes.oliveira@ibm.com>'

_cell_length_a    9.6097
_cell_length_b    24.359
_cell_length_c    24.804
_cell_angle_alpha 91.774
_cell_angle_beta  90
_cell_angle_gamma 90
_cell_volume      5803.4

_symmetry_cell_setting          triclinic
_symmetry_space_group_name_Hall 'P 1'
_symmetry_space_group_name_H-M  'P 1'
_symmetry_Int_Tables_number     1

_symmetry_equiv_pos_as_xyz 'x,y,z'

loop_
_atom_site_label
_atom_site_type_symbol
_atom_site_fract_x
_atom_site_fract_y
_atom_site_fract_z
_atom_site_charge
Zn       Zn     0.967150000000     0.232630000000     0.317940000000     0.337964   
Zn       Zn     0.741200000000     0.012860000000     0.275890000000     0.337964   
Zn       Zn     0.236360000000     0.032130000000     0.137470000000     0.337964   
Zn       Zn     0.328000000000     0.340980000000     0.482260000000     0.337964   
Zn       Zn     0.440200000000     0.216590000000     0.683910000000     0.337964   
Zn       Zn     0.467150000000     0.267370000000     0.182060000000     0.337964   
Zn       Zn     0.241200000000     0.487140000000     0.224110000000     0.337964   
Zn       Zn     0.736360000000     0.467870000000     0.362530000000     0.337964   
Zn       Zn     0.828000000000     0.159020000000     0.017740000000     0.337964   
Zn       Zn     0.940200000000     0.283410000000     0.816090000000     0.337964   
Zn       Zn     0.032850000000     0.767370000000     0.682060000000     0.337964   
Zn       Zn     0.258800000000     0.987140000000     0.724110000000     0.337964   
Zn       Zn     0.763640000000     0.967870000000     0.862530000000     0.337964   
Zn       Zn     0.672000000000     0.659020000000     0.517740000000     0.337964   
Zn       Zn     0.559800000000     0.783410000000     0.316090000000     0.337964   
Zn       Zn     0.532850000000     0.732630000000     0.817940000000     0.337964   
Zn       Zn     0.758800000000     0.512860000000     0.775890000000     0.337964   
Zn       Zn     0.263640000000     0.532130000000     0.637470000000     0.337964   
Zn       Zn     0.172000000000     0.840980000000     0.982260000000     0.337964   
Zn       Zn     0.059800000000     0.716590000000     0.183910000000     0.337964   
H        H      0.178100000000     0.280300000000     0.235500000000     0.0141633  
H        H      0.220400000000     0.145200000000     0.310100000000     0.0141633  
H        H      0.428200000000     0.158200000000     0.258100000000     0.0141633  
H        H      0.927700000000     0.114000000000     0.277700000000     0.0141633  
H        H      0.742600000000     0.179900000000     0.397200000000     0.0141633  
H        H      0.656800000000     0.086800000000     0.384400000000     0.0141633  
H        H      0.435900000000     0.994100000000     0.227800000000     0.0141633  
H        H      0.710400000000     0.099000000000     0.180300000000     0.0141633  
H        H      0.504000000000     0.107400000000     0.125200000000     0.0141633  
H        H      0.954500000000     0.051400000000     0.189200000000     0.0141633  
H        H      0.190200000000     0.925500000000     0.214500000000     0.0141633  
H        H      0.986100000000     0.919000000000     0.271300000000     0.0141633  
H        H      0.536500000000     0.428500000000     0.448200000000     0.0141633  
H        H      0.493300000000     0.288400000000     0.371700000000     0.0141633  
H        H      0.667400000000     0.339200000000     0.325400000000     0.0141633  
H        H      0.354300000000     0.417900000000     0.587600000000     0.0141633  
H        H      0.133600000000     0.528000000000     0.516700000000     0.0141633  
H        H      0.157600000000     0.450200000000     0.454600000000     0.0141633  
H        H      0.218900000000     0.280300000000     0.377300000000     0.0141633  
H        H      0.993000000000     0.333600000000     0.498100000000     0.0141633  
H        H      0.839000000000     0.290700000000     0.430700000000     0.0141633  
H        H      0.302100000000     0.302900000000     0.604900000000     0.0141633  
H        H      0.575100000000     0.258300000000     0.496900000000     0.0141633  
H        H      0.624800000000     0.208700000000     0.578200000000     0.0141633  
H        H      0.143000000000     0.212000000000     0.738100000000     0.0141633  
H        H      0.205700000000     0.357800000000     0.799400000000     0.0141633  
H        H      0.408300000000     0.331800000000     0.743900000000     0.0141633  
H        H      0.614500000000     0.895000000000     0.258100000000     0.0141633  
H        H      0.668400000000     0.867700000000     0.405800000000     0.0141633  
H        H      0.729800000000     0.962600000000     0.394400000000     0.0141633  
H        H      0.678100000000     0.219700000000     0.264500000000     0.0141633  
H        H      0.720400000000     0.354800000000     0.189900000000     0.0141633  
H        H      0.928200000000     0.341800000000     0.241900000000     0.0141633  
H        H      0.427700000000     0.386000000000     0.222300000000     0.0141633  
H        H      0.242600000000     0.320100000000     0.102800000000     0.0141633  
H        H      0.156800000000     0.413200000000     0.115600000000     0.0141633  
H        H      0.935900000000     0.505900000000     0.272200000000     0.0141633  
H        H      0.210400000000     0.401000000000     0.319700000000     0.0141633  
H        H      0.004000000000     0.392600000000     0.374800000000     0.0141633  
H        H      0.454500000000     0.448600000000     0.310800000000     0.0141633  
H        H      0.690200000000     0.574500000000     0.285500000000     0.0141633  
H        H      0.486100000000     0.581000000000     0.228700000000     0.0141633  
H        H      0.036500000000     0.071500000000     0.051800000000     0.0141633  
H        H      0.993300000000     0.211600000000     0.128300000000     0.0141633  
H        H      0.167400000000     0.160800000000     0.174600000000     0.0141633  
H        H      0.854300000000     0.082100000000     0.912400000000     0.0141633  
H        H      0.633600000000     0.972000000000     0.983300000000     0.0141633  
H        H      0.657600000000     0.049800000000     0.045400000000     0.0141633  
H        H      0.718900000000     0.219700000000     0.122700000000     0.0141633  
H        H      0.493000000000     0.166400000000     0.001900000000     0.0141633  
H        H      0.339000000000     0.209300000000     0.069300000000     0.0141633  
H        H      0.802100000000     0.197100000000     0.895100000000     0.0141633  
H        H      0.075100000000     0.241700000000     0.003100000000     0.0141633  
H        H      0.124800000000     0.291300000000     0.921800000000     0.0141633  
H        H      0.643000000000     0.288000000000     0.761900000000     0.0141633  
H        H      0.705700000000     0.142200000000     0.700600000000     0.0141633  
H        H      0.908300000000     0.168200000000     0.756100000000     0.0141633  
H        H      0.114500000000     0.605000000000     0.241900000000     0.0141633  
H        H      0.168400000000     0.632300000000     0.094200000000     0.0141633  
H        H      0.229800000000     0.537400000000     0.105600000000     0.0141633  
H        H      0.821900000000     0.719700000000     0.764500000000     0.0141633  
H        H      0.779600000000     0.854800000000     0.689900000000     0.0141633  
H        H      0.571800000000     0.841800000000     0.741900000000     0.0141633  
H        H      0.072300000000     0.886000000000     0.722300000000     0.0141633  
H        H      0.257400000000     0.820100000000     0.602800000000     0.0141633  
H        H      0.343200000000     0.913200000000     0.615600000000     0.0141633  
H        H      0.564100000000     0.005900000000     0.772200000000     0.0141633  
H        H      0.289600000000     0.901000000000     0.819700000000     0.0141633  
H        H      0.496000000000     0.892600000000     0.874800000000     0.0141633  
H        H      0.045500000000     0.948600000000     0.810800000000     0.0141633  
H        H      0.809800000000     0.074500000000     0.785500000000     0.0141633  
H        H      0.013900000000     0.081000000000     0.728700000000     0.0141633  
H        H      0.463500000000     0.571500000000     0.551800000000     0.0141633  
H        H      0.506700000000     0.711600000000     0.628300000000     0.0141633  
H        H      0.332600000000     0.660800000000     0.674600000000     0.0141633  
H        H      0.645700000000     0.582100000000     0.412400000000     0.0141633  
H        H      0.866400000000     0.472000000000     0.483300000000     0.0141633  
H        H      0.842400000000     0.549800000000     0.545400000000     0.0141633  
H        H      0.781100000000     0.719700000000     0.622700000000     0.0141633  
H        H      0.007000000000     0.666400000000     0.501900000000     0.0141633  
H        H      0.161000000000     0.709300000000     0.569300000000     0.0141633  
H        H      0.697900000000     0.697100000000     0.395100000000     0.0141633  
H        H      0.424900000000     0.741700000000     0.503100000000     0.0141633  
H        H      0.375200000000     0.791300000000     0.421800000000     0.0141633  
H        H      0.857000000000     0.788000000000     0.261900000000     0.0141633  
H        H      0.794300000000     0.642200000000     0.200600000000     0.0141633  
H        H      0.591700000000     0.668200000000     0.256100000000     0.0141633  
H        H      0.385500000000     0.105000000000     0.741900000000     0.0141633  
H        H      0.331600000000     0.132300000000     0.594200000000     0.0141633  
H        H      0.270200000000     0.037400000000     0.605600000000     0.0141633  
H        H      0.321900000000     0.780300000000     0.735500000000     0.0141633  
H        H      0.279600000000     0.645200000000     0.810100000000     0.0141633  
H        H      0.071800000000     0.658200000000     0.758100000000     0.0141633  
H        H      0.572300000000     0.614000000000     0.777700000000     0.0141633  
H        H      0.757400000000     0.679900000000     0.897200000000     0.0141633  
H        H      0.843200000000     0.586800000000     0.884400000000     0.0141633  
H        H      0.064100000000     0.494100000000     0.727800000000     0.0141633  
H        H      0.789600000000     0.599000000000     0.680300000000     0.0141633  
H        H      0.996000000000     0.607400000000     0.625200000000     0.0141633  
H        H      0.545500000000     0.551400000000     0.689200000000     0.0141633  
H        H      0.309800000000     0.425500000000     0.714500000000     0.0141633  
H        H      0.513900000000     0.419000000000     0.771300000000     0.0141633  
H        H      0.963500000000     0.928500000000     0.948200000000     0.0141633  
H        H      0.006700000000     0.788400000000     0.871700000000     0.0141633  
H        H      0.832600000000     0.839200000000     0.825400000000     0.0141633  
H        H      0.145700000000     0.917900000000     0.087600000000     0.0141633  
H        H      0.366400000000     0.028000000000     0.016700000000     0.0141633  
H        H      0.342400000000     0.950200000000     0.954600000000     0.0141633  
H        H      0.281100000000     0.780300000000     0.877300000000     0.0141633  
H        H      0.507000000000     0.833600000000     0.998100000000     0.0141633  
H        H      0.661000000000     0.790700000000     0.930700000000     0.0141633  
H        H      0.197900000000     0.802900000000     0.104900000000     0.0141633  
H        H      0.924900000000     0.758300000000     0.996900000000     0.0141633  
H        H      0.875200000000     0.708700000000     0.078200000000     0.0141633  
H        H      0.357000000000     0.712000000000     0.238100000000     0.0141633  
H        H      0.294300000000     0.857800000000     0.299400000000     0.0141633  
H        H      0.091700000000     0.831800000000     0.243900000000     0.0141633  
H        H      0.885500000000     0.395000000000     0.758100000000     0.0141633  
H        H      0.831600000000     0.367700000000     0.905800000000     0.0141633  
H        H      0.770200000000     0.462600000000     0.894400000000     0.0141633  
C        C      0.215500000000     0.247800000000     0.247800000000     0.0413151  
C        C      0.237400000000     0.174900000000     0.288400000000     0.0413151  
C        C      0.352100000000     0.181800000000     0.259600000000     0.0413151  
C        C      0.869700000000     0.118700000000     0.307500000000     0.0413151  
C        C      0.773500000000     0.154700000000     0.370900000000     0.0413151  
C        C      0.724000000000     0.103200000000     0.363200000000     0.0413151  
C        C      0.480500000000     0.021600000000     0.209000000000     0.0413151  
C        C      0.629600000000     0.078400000000     0.183400000000     0.0413151  
C        C      0.515600000000     0.083100000000     0.153000000000     0.0413151  
C        C      0.988300000000     0.019100000000     0.203300000000     0.0413151  
C        C      0.117600000000     0.950800000000     0.216600000000     0.0413151  
C        C      0.004400000000     0.947100000000     0.247800000000     0.0413151  
C        C      0.547200000000     0.399300000000     0.423600000000     0.0413151  
C        C      0.523400000000     0.323500000000     0.382000000000     0.0413151  
C        C      0.619900000000     0.351100000000     0.356300000000     0.0413151  
C        C      0.302100000000     0.435900000000     0.561900000000     0.0413151  
C        C      0.181800000000     0.495900000000     0.523700000000     0.0413151  
C        C      0.195100000000     0.453200000000     0.489200000000     0.0413151  
C        C      0.142800000000     0.287500000000     0.399600000000     0.0413151  
C        C      0.021100000000     0.317000000000     0.465600000000     0.0413151  
C        C      0.935300000000     0.293300000000     0.427900000000     0.0413151  
C        C      0.376200000000     0.285100000000     0.587700000000     0.0413151  
C        C      0.524600000000     0.261200000000     0.528900000000     0.0413151  
C        C      0.552500000000     0.233500000000     0.573900000000     0.0413151  
C        C      0.184200000000     0.245700000000     0.746700000000     0.0413151  
C        C      0.216700000000     0.324700000000     0.780200000000     0.0413151  
C        C      0.329800000000     0.310400000000     0.749400000000     0.0413151  
C        C      0.633900000000     0.900300000000     0.294700000000     0.0413151  
C        C      0.663000000000     0.885400000000     0.373200000000     0.0413151  
C        C      0.697800000000     0.938000000000     0.367800000000     0.0413151  
C        C      0.715500000000     0.252200000000     0.252200000000     0.0413151  
C        C      0.737400000000     0.325100000000     0.211600000000     0.0413151  
C        C      0.852100000000     0.318200000000     0.240400000000     0.0413151  
C        C      0.369700000000     0.381300000000     0.192500000000     0.0413151  
C        C      0.273500000000     0.345300000000     0.129100000000     0.0413151  
C        C      0.224000000000     0.396800000000     0.136800000000     0.0413151  
C        C      0.980500000000     0.478400000000     0.291000000000     0.0413151  
C        C      0.129600000000     0.421600000000     0.316600000000     0.0413151  
C        C      0.015600000000     0.416900000000     0.347000000000     0.0413151  
C        C      0.488300000000     0.480900000000     0.296700000000     0.0413151  
C        C      0.617600000000     0.549200000000     0.283400000000     0.0413151  
C        C      0.504400000000     0.552900000000     0.252200000000     0.0413151  
C        C      0.047200000000     0.100700000000     0.076400000000     0.0413151  
C        C      0.023400000000     0.176500000000     0.118000000000     0.0413151  
C        C      0.119900000000     0.148900000000     0.143700000000     0.0413151  
C        C      0.802100000000     0.064100000000     0.938100000000     0.0413151  
C        C      0.681800000000     0.004100000000     0.976300000000     0.0413151  
C        C      0.695100000000     0.046800000000     0.010800000000     0.0413151  
C        C      0.642800000000     0.212500000000     0.100400000000     0.0413151  
C        C      0.521100000000     0.183000000000     0.034400000000     0.0413151  
C        C      0.435300000000     0.206700000000     0.072100000000     0.0413151  
C        C      0.876200000000     0.214900000000     0.912300000000     0.0413151  
C        C      0.024600000000     0.238800000000     0.971100000000     0.0413151  
C        C      0.052500000000     0.266500000000     0.926100000000     0.0413151  
C        C      0.684200000000     0.254300000000     0.753300000000     0.0413151  
C        C      0.716700000000     0.175300000000     0.719800000000     0.0413151  
C        C      0.829800000000     0.189600000000     0.750600000000     0.0413151  
C        C      0.133900000000     0.599700000000     0.205300000000     0.0413151  
C        C      0.163000000000     0.614600000000     0.126800000000     0.0413151  
C        C      0.197800000000     0.562000000000     0.132200000000     0.0413151  
C        C      0.784500000000     0.752200000000     0.752200000000     0.0413151  
C        C      0.762600000000     0.825100000000     0.711600000000     0.0413151  
C        C      0.647900000000     0.818200000000     0.740400000000     0.0413151  
C        C      0.130300000000     0.881300000000     0.692500000000     0.0413151  
C        C      0.226500000000     0.845300000000     0.629100000000     0.0413151  
C        C      0.276000000000     0.896800000000     0.636800000000     0.0413151  
C        C      0.519500000000     0.978400000000     0.791000000000     0.0413151  
C        C      0.370400000000     0.921600000000     0.816600000000     0.0413151  
C        C      0.484400000000     0.916900000000     0.847000000000     0.0413151  
C        C      0.011700000000     0.980900000000     0.796700000000     0.0413151  
C        C      0.882400000000     0.049200000000     0.783400000000     0.0413151  
C        C      0.995600000000     0.052900000000     0.752200000000     0.0413151  
C        C      0.452800000000     0.600700000000     0.576400000000     0.0413151  
C        C      0.476600000000     0.676500000000     0.618000000000     0.0413151  
C        C      0.380100000000     0.648900000000     0.643700000000     0.0413151  
C        C      0.697900000000     0.564100000000     0.438100000000     0.0413151  
C        C      0.818200000000     0.504100000000     0.476300000000     0.0413151  
C        C      0.804900000000     0.546800000000     0.510800000000     0.0413151  
C        C      0.857200000000     0.712500000000     0.600400000000     0.0413151  
C        C      0.978900000000     0.683000000000     0.534400000000     0.0413151  
C        C      0.064700000000     0.706700000000     0.572100000000     0.0413151  
C        C      0.623800000000     0.714900000000     0.412300000000     0.0413151  
C        C      0.475400000000     0.738800000000     0.471100000000     0.0413151  
C        C      0.447500000000     0.766500000000     0.426100000000     0.0413151  
C        C      0.815800000000     0.754300000000     0.253300000000     0.0413151  
C        C      0.783300000000     0.675300000000     0.219800000000     0.0413151  
C        C      0.670200000000     0.689600000000     0.250600000000     0.0413151  
C        C      0.366100000000     0.099700000000     0.705300000000     0.0413151  
C        C      0.337000000000     0.114600000000     0.626800000000     0.0413151  
C        C      0.302200000000     0.062000000000     0.632200000000     0.0413151  
C        C      0.284500000000     0.747800000000     0.747800000000     0.0413151  
C        C      0.262600000000     0.674900000000     0.788400000000     0.0413151  
C        C      0.147900000000     0.681800000000     0.759600000000     0.0413151  
C        C      0.630300000000     0.618700000000     0.807500000000     0.0413151  
C        C      0.726500000000     0.654700000000     0.870900000000     0.0413151  
C        C      0.776000000000     0.603200000000     0.863200000000     0.0413151  
C        C      0.019500000000     0.521600000000     0.709000000000     0.0413151  
C        C      0.870400000000     0.578400000000     0.683400000000     0.0413151  
C        C      0.984400000000     0.583100000000     0.653000000000     0.0413151  
C        C      0.511700000000     0.519100000000     0.703300000000     0.0413151  
C        C      0.382400000000     0.450800000000     0.716600000000     0.0413151  
C        C      0.495600000000     0.447100000000     0.747800000000     0.0413151  
C        C      0.952800000000     0.899300000000     0.923600000000     0.0413151  
C        C      0.976600000000     0.823500000000     0.882000000000     0.0413151  
C        C      0.880100000000     0.851100000000     0.856300000000     0.0413151  
C        C      0.197900000000     0.935900000000     0.061900000000     0.0413151  
C        C      0.318200000000     0.995900000000     0.023700000000     0.0413151  
C        C      0.304900000000     0.953200000000     0.989200000000     0.0413151  
C        C      0.357200000000     0.787500000000     0.899600000000     0.0413151  
C        C      0.478900000000     0.817000000000     0.965600000000     0.0413151  
C        C      0.564700000000     0.793300000000     0.927900000000     0.0413151  
C        C      0.123800000000     0.785100000000     0.087700000000     0.0413151  
C        C      0.975400000000     0.761200000000     0.028900000000     0.0413151  
C        C      0.947500000000     0.733500000000     0.073900000000     0.0413151  
C        C      0.315800000000     0.745700000000     0.246700000000     0.0413151  
C        C      0.283300000000     0.824700000000     0.280200000000     0.0413151  
C        C      0.170200000000     0.810400000000     0.249400000000     0.0413151  
C        C      0.866100000000     0.400300000000     0.794700000000     0.0413151  
C        C      0.837000000000     0.385400000000     0.873200000000     0.0413151  
C        C      0.802200000000     0.438000000000     0.867800000000     0.0413151  
N        N      0.149700000000     0.216800000000     0.281700000000    -0.167709   
N        N      0.339600000000     0.229300000000     0.232500000000    -0.167709   
N        N      0.871300000000     0.163600000000     0.336000000000    -0.167709   
N        N      0.784500000000     0.079800000000     0.321500000000    -0.167709   
N        N      0.607500000000     0.037600000000     0.220200000000    -0.167709   
N        N      0.420900000000     0.047000000000     0.169500000000    -0.167709   
N        N      0.920000000000     0.991200000000     0.239500000000    -0.167709   
N        N      0.108300000000     0.997400000000     0.188900000000    -0.167709   
N        N      0.636600000000     0.399800000000     0.383400000000    -0.167709   
N        N      0.473200000000     0.352900000000     0.425800000000    -0.167709   
N        N      0.248600000000     0.485600000000     0.570400000000    -0.167709   
N        N      0.274600000000     0.414300000000     0.513900000000    -0.167709   
N        N      0.154300000000     0.312300000000     0.447900000000    -0.167709   
N        N      0.013000000000     0.274000000000     0.385700000000    -0.167709   
N        N      0.412500000000     0.293900000000     0.537200000000    -0.167709   
N        N      0.456600000000     0.248100000000     0.611600000000    -0.167709   
N        N      0.306700000000     0.259500000000     0.728300000000    -0.167709   
N        N      0.123600000000     0.283300000000     0.778500000000    -0.167709   
N        N      0.620800000000     0.861400000000     0.328500000000    -0.167709   
N        N      0.676300000000     0.947700000000     0.315100000000    -0.167709   
N        N      0.649700000000     0.283200000000     0.218300000000    -0.167709   
N        N      0.839600000000     0.270700000000     0.267500000000    -0.167709   
N        N      0.371300000000     0.336400000000     0.164000000000    -0.167709   
N        N      0.284500000000     0.420200000000     0.178500000000    -0.167709   
N        N      0.107500000000     0.462400000000     0.279800000000    -0.167709   
N        N      0.920900000000     0.453000000000     0.330500000000    -0.167709   
N        N      0.420000000000     0.508800000000     0.260500000000    -0.167709   
N        N      0.608300000000     0.502600000000     0.311100000000    -0.167709   
N        N      0.136600000000     0.100200000000     0.116600000000    -0.167709   
N        N      0.973200000000     0.147100000000     0.074200000000    -0.167709   
N        N      0.748600000000     0.014400000000     0.929600000000    -0.167709   
N        N      0.774600000000     0.085700000000     0.986100000000    -0.167709   
N        N      0.654300000000     0.187700000000     0.052100000000    -0.167709   
N        N      0.513000000000     0.226000000000     0.114300000000    -0.167709   
N        N      0.912500000000     0.206100000000     0.962800000000    -0.167709   
N        N      0.956600000000     0.251900000000     0.888400000000    -0.167709   
N        N      0.806700000000     0.240500000000     0.771700000000    -0.167709   
N        N      0.623600000000     0.216700000000     0.721500000000    -0.167709   
N        N      0.120800000000     0.638600000000     0.171500000000    -0.167709   
N        N      0.176300000000     0.552300000000     0.184900000000    -0.167709   
N        N      0.850300000000     0.783200000000     0.718300000000    -0.167709   
N        N      0.660400000000     0.770700000000     0.767500000000    -0.167709   
N        N      0.128700000000     0.836400000000     0.664000000000    -0.167709   
N        N      0.215500000000     0.920200000000     0.678500000000    -0.167709   
N        N      0.392500000000     0.962400000000     0.779800000000    -0.167709   
N        N      0.579100000000     0.953000000000     0.830500000000    -0.167709   
N        N      0.080000000000     0.008800000000     0.760500000000    -0.167709   
N        N      0.891700000000     0.002600000000     0.811100000000    -0.167709   
N        N      0.363400000000     0.600200000000     0.616600000000    -0.167709   
N        N      0.526800000000     0.647100000000     0.574200000000    -0.167709   
N        N      0.751400000000     0.514400000000     0.429600000000    -0.167709   
N        N      0.725400000000     0.585700000000     0.486100000000    -0.167709   
N        N      0.845700000000     0.687700000000     0.552100000000    -0.167709   
N        N      0.987000000000     0.726000000000     0.614300000000    -0.167709   
N        N      0.587500000000     0.706100000000     0.462800000000    -0.167709   
N        N      0.543400000000     0.751900000000     0.388400000000    -0.167709   
N        N      0.693300000000     0.740500000000     0.271700000000    -0.167709   
N        N      0.876400000000     0.716700000000     0.221500000000    -0.167709   
N        N      0.379200000000     0.138600000000     0.671500000000    -0.167709   
N        N      0.323700000000     0.052300000000     0.684900000000    -0.167709   
N        N      0.350300000000     0.716800000000     0.781700000000    -0.167709   
N        N      0.160400000000     0.729300000000     0.732500000000    -0.167709   
N        N      0.628700000000     0.663600000000     0.836000000000    -0.167709   
N        N      0.715500000000     0.579800000000     0.821500000000    -0.167709   
N        N      0.892500000000     0.537600000000     0.720200000000    -0.167709   
N        N      0.079100000000     0.547000000000     0.669500000000    -0.167709   
N        N      0.580000000000     0.491200000000     0.739500000000    -0.167709   
N        N      0.391700000000     0.497400000000     0.688900000000    -0.167709   
N        N      0.863400000000     0.899800000000     0.883400000000    -0.167709   
N        N      0.026800000000     0.852900000000     0.925800000000    -0.167709   
N        N      0.251400000000     0.985600000000     0.070400000000    -0.167709   
N        N      0.225400000000     0.914300000000     0.013900000000    -0.167709   
N        N      0.345700000000     0.812300000000     0.947900000000    -0.167709   
N        N      0.487000000000     0.774000000000     0.885700000000    -0.167709   
N        N      0.087500000000     0.793900000000     0.037200000000    -0.167709   
N        N      0.043400000000     0.748100000000     0.111600000000    -0.167709   
N        N      0.193300000000     0.759500000000     0.228300000000    -0.167709   
N        N      0.376400000000     0.783300000000     0.278500000000    -0.167709   
N        N      0.879200000000     0.361400000000     0.828500000000    -0.167709   
N        N      0.823700000000     0.447700000000     0.815100000000    -0.167709   


