data_HIHGOW_original

_audit_creation_method RASPA-1.0
_audit_creation_date 2022-1-29
_audit_author_name 'Felipe Lopes de Oliveira <felipe.lopes.oliveira@ibm.com>'

_cell_length_a    16.0346
_cell_length_b    16.0346
_cell_length_c    26.471
_cell_angle_alpha 84.3117
_cell_angle_beta  84.3117
_cell_angle_gamma 84.3683
_cell_volume      6712.2

_symmetry_cell_setting          triclinic
_symmetry_space_group_name_Hall 'P 1'
_symmetry_space_group_name_H-M  'P 1'
_symmetry_Int_Tables_number     1

_symmetry_equiv_pos_as_xyz 'x,y,z'

loop_
_atom_site_label
_atom_site_type_symbol
_atom_site_fract_x
_atom_site_fract_y
_atom_site_fract_z
_atom_site_charge
Zn       Zn     0.721900000000     0.319940000000     0.493310000000     0.476731   
Zn       Zn     0.901170000000     0.306350000000     0.472110000000     0.476731   
Zn       Zn     0.319940000000     0.721900000000     0.993310000000     0.476731   
Zn       Zn     0.306350000000     0.901170000000     0.972110000000     0.476731   
Zn       Zn     0.680060000000     0.278100000000     0.006690000000     0.476731   
Zn       Zn     0.693650000000     0.098830000000     0.027890000000     0.476731   
Zn       Zn     0.278100000000     0.680060000000     0.506690000000     0.476731   
Zn       Zn     0.098830000000     0.693650000000     0.527890000000     0.476731   
H        H      0.677700000000     0.555900000000     0.393800000000     0.0556753  
H        H      0.676600000000     0.681600000000     0.344500000000     0.0556753  
H        H      0.926200000000     0.662000000000     0.330200000000     0.0556753  
H        H      0.927900000000     0.536100000000     0.379600000000     0.0556753  
H        H      0.697500000000     0.817500000000     0.299200000000     0.0556753  
H        H      0.716900000000     0.744700000000     0.262800000000     0.0556753  
H        H      0.649800000000     0.914200000000     0.222700000000     0.0556753  
H        H      0.711000000000     0.924400000000     0.172500000000     0.0556753  
H        H      0.600400000000     0.696400000000     0.161100000000     0.0556753  
H        H      0.492700000000     0.692500000000     0.109800000000     0.0556753  
H        H      0.470300000000     0.940700000000     0.091100000000     0.0556753  
H        H      0.577500000000     0.947300000000     0.142700000000     0.0556753  
H        H      0.854200000000     0.908600000000     0.277300000000     0.0556753  
H        H      0.829700000000     0.970300000000     0.229900000000     0.0556753  
H        H      0.650800000000     0.052200000000     0.342000000000     0.0556753  
H        H      0.674200000000     0.151600000000     0.393900000000     0.0556753  
H        H      0.915500000000     0.134700000000     0.344000000000     0.0556753  
H        H      0.892000000000     0.028600000000     0.292700000000     0.0556753  
H        H      0.889900000000     0.791300000000     0.216900000000     0.0556753  
H        H      0.822900000000     0.765700000000     0.183100000000     0.0556753  
H        H      0.959700000000     0.726300000000     0.150800000000     0.0556753  
H        H      0.087000000000     0.707000000000     0.101900000000     0.0556753  
H        H      0.072400000000     0.947000000000     0.052000000000     0.0556753  
H        H      0.943700000000     0.968700000000     0.098100000000     0.0556753  
H        H      0.028300000000     0.392700000000     0.516200000000     0.0556753  
H        H      0.170000000000     0.389400000000     0.517900000000     0.0556753  
H        H      0.195800000000     0.203400000000     0.426000000000     0.0556753  
H        H      0.050600000000     0.208800000000     0.428700000000     0.0556753  
H        H      0.321000000000     0.247600000000     0.455700000000     0.0556753  
H        H      0.299000000000     0.378200000000     0.513900000000     0.0556753  
H        H      0.446300000000     0.221900000000     0.467700000000     0.0556753  
H        H      0.591500000000     0.212100000000     0.469000000000     0.0556753  
H        H      0.574400000000     0.438000000000     0.524600000000     0.0556753  
H        H      0.429300000000     0.447700000000     0.523300000000     0.0556753  
H        H      0.555900000000     0.677700000000     0.893800000000     0.0556753  
H        H      0.681600000000     0.676600000000     0.844500000000     0.0556753  
H        H      0.662000000000     0.926200000000     0.830200000000     0.0556753  
H        H      0.536100000000     0.927900000000     0.879600000000     0.0556753  
H        H      0.817500000000     0.697500000000     0.799200000000     0.0556753  
H        H      0.744700000000     0.716900000000     0.762800000000     0.0556753  
H        H      0.914200000000     0.649800000000     0.722700000000     0.0556753  
H        H      0.924400000000     0.711000000000     0.672500000000     0.0556753  
H        H      0.696400000000     0.600400000000     0.661100000000     0.0556753  
H        H      0.692500000000     0.492700000000     0.609800000000     0.0556753  
H        H      0.940700000000     0.470300000000     0.591100000000     0.0556753  
H        H      0.947300000000     0.577500000000     0.642700000000     0.0556753  
H        H      0.908600000000     0.854200000000     0.777300000000     0.0556753  
H        H      0.970300000000     0.829700000000     0.729900000000     0.0556753  
H        H      0.052200000000     0.650800000000     0.842000000000     0.0556753  
H        H      0.151600000000     0.674200000000     0.893900000000     0.0556753  
H        H      0.134700000000     0.915500000000     0.844000000000     0.0556753  
H        H      0.028600000000     0.892000000000     0.792700000000     0.0556753  
H        H      0.791300000000     0.889900000000     0.716900000000     0.0556753  
H        H      0.765700000000     0.822900000000     0.683100000000     0.0556753  
H        H      0.726300000000     0.959700000000     0.650800000000     0.0556753  
H        H      0.707000000000     0.087000000000     0.601900000000     0.0556753  
H        H      0.947000000000     0.072400000000     0.552000000000     0.0556753  
H        H      0.968700000000     0.943700000000     0.598100000000     0.0556753  
H        H      0.392700000000     0.028300000000     0.016200000000     0.0556753  
H        H      0.389400000000     0.170000000000     0.017900000000     0.0556753  
H        H      0.203400000000     0.195800000000     0.926000000000     0.0556753  
H        H      0.208800000000     0.050600000000     0.928700000000     0.0556753  
H        H      0.247600000000     0.321000000000     0.955700000000     0.0556753  
H        H      0.378200000000     0.299000000000     0.013900000000     0.0556753  
H        H      0.221900000000     0.446300000000     0.967700000000     0.0556753  
H        H      0.212100000000     0.591500000000     0.969000000000     0.0556753  
H        H      0.438000000000     0.574400000000     0.024600000000     0.0556753  
H        H      0.447700000000     0.429300000000     0.023300000000     0.0556753  
H        H      0.444100000000     0.322300000000     0.106200000000     0.0556753  
H        H      0.318400000000     0.323400000000     0.155500000000     0.0556753  
H        H      0.338000000000     0.073800000000     0.169800000000     0.0556753  
H        H      0.463900000000     0.072100000000     0.120400000000     0.0556753  
H        H      0.182500000000     0.302500000000     0.200800000000     0.0556753  
H        H      0.255300000000     0.283100000000     0.237200000000     0.0556753  
H        H      0.085800000000     0.350200000000     0.277300000000     0.0556753  
H        H      0.075600000000     0.289000000000     0.327500000000     0.0556753  
H        H      0.303600000000     0.399600000000     0.338900000000     0.0556753  
H        H      0.307500000000     0.507300000000     0.390200000000     0.0556753  
H        H      0.059300000000     0.529700000000     0.408900000000     0.0556753  
H        H      0.052700000000     0.422500000000     0.357300000000     0.0556753  
H        H      0.091400000000     0.145800000000     0.222700000000     0.0556753  
H        H      0.029700000000     0.170300000000     0.270100000000     0.0556753  
H        H      0.947800000000     0.349200000000     0.158000000000     0.0556753  
H        H      0.848400000000     0.325800000000     0.106100000000     0.0556753  
H        H      0.865300000000     0.084500000000     0.156000000000     0.0556753  
H        H      0.971400000000     0.108000000000     0.207300000000     0.0556753  
H        H      0.208700000000     0.110100000000     0.283100000000     0.0556753  
H        H      0.234300000000     0.177100000000     0.316900000000     0.0556753  
H        H      0.273700000000     0.040300000000     0.349200000000     0.0556753  
H        H      0.293000000000     0.913000000000     0.398100000000     0.0556753  
H        H      0.053000000000     0.927600000000     0.448000000000     0.0556753  
H        H      0.031300000000     0.056300000000     0.401900000000     0.0556753  
H        H      0.607300000000     0.971700000000     0.983800000000     0.0556753  
H        H      0.610600000000     0.830000000000     0.982100000000     0.0556753  
H        H      0.796600000000     0.804200000000     0.074000000000     0.0556753  
H        H      0.791200000000     0.949400000000     0.071300000000     0.0556753  
H        H      0.752400000000     0.679000000000     0.044300000000     0.0556753  
H        H      0.621800000000     0.701000000000     0.986100000000     0.0556753  
H        H      0.778100000000     0.553700000000     0.032300000000     0.0556753  
H        H      0.787900000000     0.408500000000     0.031000000000     0.0556753  
H        H      0.562000000000     0.425600000000     0.975400000000     0.0556753  
H        H      0.552300000000     0.570700000000     0.976700000000     0.0556753  
H        H      0.322300000000     0.444100000000     0.606200000000     0.0556753  
H        H      0.323400000000     0.318400000000     0.655500000000     0.0556753  
H        H      0.073800000000     0.338000000000     0.669800000000     0.0556753  
H        H      0.072100000000     0.463900000000     0.620400000000     0.0556753  
H        H      0.302500000000     0.182500000000     0.700800000000     0.0556753  
H        H      0.283100000000     0.255300000000     0.737200000000     0.0556753  
H        H      0.350200000000     0.085800000000     0.777300000000     0.0556753  
H        H      0.289000000000     0.075600000000     0.827500000000     0.0556753  
H        H      0.399600000000     0.303600000000     0.838900000000     0.0556753  
H        H      0.507300000000     0.307500000000     0.890200000000     0.0556753  
H        H      0.529700000000     0.059300000000     0.908900000000     0.0556753  
H        H      0.422500000000     0.052700000000     0.857300000000     0.0556753  
H        H      0.145800000000     0.091400000000     0.722700000000     0.0556753  
H        H      0.170300000000     0.029700000000     0.770100000000     0.0556753  
H        H      0.349200000000     0.947800000000     0.658000000000     0.0556753  
H        H      0.325800000000     0.848400000000     0.606100000000     0.0556753  
H        H      0.084500000000     0.865300000000     0.656000000000     0.0556753  
H        H      0.108000000000     0.971400000000     0.707300000000     0.0556753  
H        H      0.110100000000     0.208700000000     0.783100000000     0.0556753  
H        H      0.177100000000     0.234300000000     0.816900000000     0.0556753  
H        H      0.040300000000     0.273700000000     0.849200000000     0.0556753  
H        H      0.913000000000     0.293000000000     0.898100000000     0.0556753  
H        H      0.927600000000     0.053000000000     0.948000000000     0.0556753  
H        H      0.056300000000     0.031300000000     0.901900000000     0.0556753  
H        H      0.971700000000     0.607300000000     0.483800000000     0.0556753  
H        H      0.830000000000     0.610600000000     0.482100000000     0.0556753  
H        H      0.804200000000     0.796600000000     0.574000000000     0.0556753  
H        H      0.949400000000     0.791200000000     0.571300000000     0.0556753  
H        H      0.679000000000     0.752400000000     0.544300000000     0.0556753  
H        H      0.701000000000     0.621800000000     0.486100000000     0.0556753  
H        H      0.553700000000     0.778100000000     0.532300000000     0.0556753  
H        H      0.408500000000     0.787900000000     0.531000000000     0.0556753  
H        H      0.425600000000     0.562000000000     0.475400000000     0.0556753  
H        H      0.570700000000     0.552300000000     0.476700000000     0.0556753  
C        C      0.804200000000     0.450400000000     0.422500000000     0.0228893  
C        C      0.803700000000     0.530900000000     0.389400000000     0.0228893  
C        C      0.728200000000     0.576600000000     0.380200000000     0.0228893  
C        C      0.727600000000     0.651800000000     0.351300000000     0.0228893  
C        C      0.802400000000     0.684200000000     0.332100000000     0.0228893  
C        C      0.875700000000     0.640500000000     0.342800000000     0.0228893  
C        C      0.876800000000     0.564600000000     0.371800000000     0.0228893  
C        C      0.740600000000     0.790200000000     0.276500000000     0.0228893  
C        C      0.771500000000     0.854100000000     0.232800000000     0.0228893  
C        C      0.694100000000     0.885700000000     0.201500000000     0.0228893  
C        C      0.602200000000     0.822800000000     0.155000000000     0.0228893  
C        C      0.575100000000     0.746300000000     0.146200000000     0.0228893  
C        C      0.510700000000     0.743900000000     0.115300000000     0.0228893  
C        C      0.474100000000     0.815300000000     0.093300000000     0.0228893  
C        C      0.498000000000     0.891000000000     0.104600000000     0.0228893  
C        C      0.562300000000     0.895500000000     0.135500000000     0.0228893  
C        C      0.408800000000     0.810800000000     0.056200000000     0.0228893  
C        C      0.808600000000     0.930200000000     0.256800000000     0.0228893  
C        C      0.767000000000     0.031400000000     0.314200000000     0.0228893  
C        C      0.705000000000     0.067800000000     0.342600000000     0.0228893  
C        C      0.718700000000     0.128300000000     0.373000000000     0.0228893  
C        C      0.798400000000     0.155400000000     0.373000000000     0.0228893  
C        C      0.861400000000     0.118200000000     0.344000000000     0.0228893  
C        C      0.847900000000     0.054100000000     0.313000000000     0.0228893  
C        C      0.812200000000     0.218000000000     0.407900000000     0.0228893  
C        C      0.842900000000     0.812700000000     0.197400000000     0.0228893  
C        C      0.942600000000     0.849800000000     0.130600000000     0.0228893  
C        C      0.982500000000     0.771500000000     0.131300000000     0.0228893  
C        C      0.058700000000     0.760500000000     0.101800000000     0.0228893  
C        C      0.093600000000     0.825800000000     0.072500000000     0.0228893  
C        C      0.050000000000     0.902000000000     0.072000000000     0.0228893  
C        C      0.973500000000     0.915900000000     0.099900000000     0.0228893  
C        C      0.176800000000     0.815200000000     0.042500000000     0.0228893  
C        C      0.062800000000     0.353600000000     0.498200000000     0.0228893  
C        C      0.147600000000     0.352200000000     0.499200000000     0.0228893  
C        C      0.199700000000     0.295900000000     0.472800000000     0.0228893  
C        C      0.162400000000     0.241800000000     0.445100000000     0.0228893  
C        C      0.075100000000     0.245700000000     0.446400000000     0.0228893  
C        C      0.290000000000     0.289600000000     0.473100000000     0.0228893  
C        C      0.330900000000     0.337700000000     0.495600000000     0.0228893  
C        C      0.423400000000     0.335800000000     0.495400000000     0.0228893  
C        C      0.472000000000     0.265200000000     0.479100000000     0.0228893  
C        C      0.558900000000     0.259300000000     0.479900000000     0.0228893  
C        C      0.548800000000     0.394600000000     0.513200000000     0.0228893  
C        C      0.461760000000     0.400560000000     0.512460000000     0.0228893  
C        C      0.450400000000     0.804200000000     0.922500000000     0.0228893  
C        C      0.530900000000     0.803700000000     0.889400000000     0.0228893  
C        C      0.576600000000     0.728200000000     0.880200000000     0.0228893  
C        C      0.651800000000     0.727600000000     0.851300000000     0.0228893  
C        C      0.684200000000     0.802400000000     0.832100000000     0.0228893  
C        C      0.640500000000     0.875700000000     0.842800000000     0.0228893  
C        C      0.564600000000     0.876800000000     0.871800000000     0.0228893  
C        C      0.790200000000     0.740600000000     0.776500000000     0.0228893  
C        C      0.854100000000     0.771500000000     0.732800000000     0.0228893  
C        C      0.885700000000     0.694100000000     0.701500000000     0.0228893  
C        C      0.822800000000     0.602200000000     0.655000000000     0.0228893  
C        C      0.746300000000     0.575100000000     0.646200000000     0.0228893  
C        C      0.743900000000     0.510700000000     0.615300000000     0.0228893  
C        C      0.815300000000     0.474100000000     0.593300000000     0.0228893  
C        C      0.891000000000     0.498000000000     0.604600000000     0.0228893  
C        C      0.895500000000     0.562300000000     0.635500000000     0.0228893  
C        C      0.810800000000     0.408800000000     0.556200000000     0.0228893  
C        C      0.930200000000     0.808600000000     0.756800000000     0.0228893  
C        C      0.031400000000     0.767000000000     0.814200000000     0.0228893  
C        C      0.067800000000     0.705000000000     0.842600000000     0.0228893  
C        C      0.128300000000     0.718700000000     0.873000000000     0.0228893  
C        C      0.155400000000     0.798400000000     0.873000000000     0.0228893  
C        C      0.118200000000     0.861400000000     0.844000000000     0.0228893  
C        C      0.054100000000     0.847900000000     0.813000000000     0.0228893  
C        C      0.218000000000     0.812200000000     0.907900000000     0.0228893  
C        C      0.812700000000     0.842900000000     0.697400000000     0.0228893  
C        C      0.849800000000     0.942600000000     0.630600000000     0.0228893  
C        C      0.771500000000     0.982500000000     0.631300000000     0.0228893  
C        C      0.760500000000     0.058700000000     0.601800000000     0.0228893  
C        C      0.825800000000     0.093600000000     0.572500000000     0.0228893  
C        C      0.902000000000     0.050000000000     0.572000000000     0.0228893  
C        C      0.915900000000     0.973500000000     0.599900000000     0.0228893  
C        C      0.815200000000     0.176800000000     0.542500000000     0.0228893  
C        C      0.353600000000     0.062800000000     0.998200000000     0.0228893  
C        C      0.352200000000     0.147600000000     0.999200000000     0.0228893  
C        C      0.295900000000     0.199700000000     0.972800000000     0.0228893  
C        C      0.241800000000     0.162400000000     0.945100000000     0.0228893  
C        C      0.245700000000     0.075100000000     0.946400000000     0.0228893  
C        C      0.289600000000     0.290000000000     0.973100000000     0.0228893  
C        C      0.337700000000     0.330900000000     0.995600000000     0.0228893  
C        C      0.335800000000     0.423400000000     0.995400000000     0.0228893  
C        C      0.265200000000     0.472000000000     0.979100000000     0.0228893  
C        C      0.259300000000     0.558900000000     0.979900000000     0.0228893  
C        C      0.394600000000     0.548800000000     0.013200000000     0.0228893  
C        C      0.400560000000     0.461760000000     0.012460000000     0.0228893  
C        C      0.549600000000     0.195800000000     0.077500000000     0.0228893  
C        C      0.469100000000     0.196300000000     0.110600000000     0.0228893  
C        C      0.423400000000     0.271800000000     0.119800000000     0.0228893  
C        C      0.348200000000     0.272400000000     0.148700000000     0.0228893  
C        C      0.315800000000     0.197600000000     0.167900000000     0.0228893  
C        C      0.359500000000     0.124300000000     0.157200000000     0.0228893  
C        C      0.435400000000     0.123200000000     0.128200000000     0.0228893  
C        C      0.209800000000     0.259400000000     0.223500000000     0.0228893  
C        C      0.145900000000     0.228500000000     0.267200000000     0.0228893  
C        C      0.114300000000     0.305900000000     0.298500000000     0.0228893  
C        C      0.177200000000     0.397800000000     0.345000000000     0.0228893  
C        C      0.253700000000     0.424900000000     0.353800000000     0.0228893  
C        C      0.256100000000     0.489300000000     0.384700000000     0.0228893  
C        C      0.184700000000     0.525900000000     0.406700000000     0.0228893  
C        C      0.109000000000     0.502000000000     0.395400000000     0.0228893  
C        C      0.104500000000     0.437700000000     0.364500000000     0.0228893  
C        C      0.189200000000     0.591200000000     0.443800000000     0.0228893  
C        C      0.069800000000     0.191400000000     0.243200000000     0.0228893  
C        C      0.968600000000     0.233000000000     0.185800000000     0.0228893  
C        C      0.932200000000     0.295000000000     0.157400000000     0.0228893  
C        C      0.871700000000     0.281300000000     0.127000000000     0.0228893  
C        C      0.844600000000     0.201600000000     0.127000000000     0.0228893  
C        C      0.881800000000     0.138600000000     0.156000000000     0.0228893  
C        C      0.945900000000     0.152100000000     0.187000000000     0.0228893  
C        C      0.782000000000     0.187800000000     0.092100000000     0.0228893  
C        C      0.187300000000     0.157100000000     0.302600000000     0.0228893  
C        C      0.150200000000     0.057400000000     0.369400000000     0.0228893  
C        C      0.228500000000     0.017500000000     0.368700000000     0.0228893  
C        C      0.239500000000     0.941300000000     0.398200000000     0.0228893  
C        C      0.174200000000     0.906400000000     0.427500000000     0.0228893  
C        C      0.098000000000     0.950000000000     0.428000000000     0.0228893  
C        C      0.084100000000     0.026500000000     0.400100000000     0.0228893  
C        C      0.184800000000     0.823200000000     0.457500000000     0.0228893  
C        C      0.646400000000     0.937200000000     0.001800000000     0.0228893  
C        C      0.647800000000     0.852400000000     0.000800000000     0.0228893  
C        C      0.704100000000     0.800300000000     0.027200000000     0.0228893  
C        C      0.758200000000     0.837600000000     0.054900000000     0.0228893  
C        C      0.754300000000     0.924900000000     0.053600000000     0.0228893  
C        C      0.710400000000     0.710000000000     0.026900000000     0.0228893  
C        C      0.662300000000     0.669100000000     0.004400000000     0.0228893  
C        C      0.664200000000     0.576600000000     0.004600000000     0.0228893  
C        C      0.734800000000     0.528000000000     0.020900000000     0.0228893  
C        C      0.740700000000     0.441100000000     0.020100000000     0.0228893  
C        C      0.605400000000     0.451200000000     0.986800000000     0.0228893  
C        C      0.599440000000     0.538240000000     0.987540000000     0.0228893  
C        C      0.195800000000     0.549600000000     0.577500000000     0.0228893  
C        C      0.196300000000     0.469100000000     0.610600000000     0.0228893  
C        C      0.271800000000     0.423400000000     0.619800000000     0.0228893  
C        C      0.272400000000     0.348200000000     0.648700000000     0.0228893  
C        C      0.197600000000     0.315800000000     0.667900000000     0.0228893  
C        C      0.124300000000     0.359500000000     0.657200000000     0.0228893  
C        C      0.123200000000     0.435400000000     0.628200000000     0.0228893  
C        C      0.259400000000     0.209800000000     0.723500000000     0.0228893  
C        C      0.228500000000     0.145900000000     0.767200000000     0.0228893  
C        C      0.305900000000     0.114300000000     0.798500000000     0.0228893  
C        C      0.397800000000     0.177200000000     0.845000000000     0.0228893  
C        C      0.424900000000     0.253700000000     0.853800000000     0.0228893  
C        C      0.489300000000     0.256100000000     0.884700000000     0.0228893  
C        C      0.525900000000     0.184700000000     0.906700000000     0.0228893  
C        C      0.502000000000     0.109000000000     0.895400000000     0.0228893  
C        C      0.437700000000     0.104500000000     0.864500000000     0.0228893  
C        C      0.591200000000     0.189200000000     0.943800000000     0.0228893  
C        C      0.191400000000     0.069800000000     0.743200000000     0.0228893  
C        C      0.233000000000     0.968600000000     0.685800000000     0.0228893  
C        C      0.295000000000     0.932200000000     0.657400000000     0.0228893  
C        C      0.281300000000     0.871700000000     0.627000000000     0.0228893  
C        C      0.201600000000     0.844600000000     0.627000000000     0.0228893  
C        C      0.138600000000     0.881800000000     0.656000000000     0.0228893  
C        C      0.152100000000     0.945900000000     0.687000000000     0.0228893  
C        C      0.187800000000     0.782000000000     0.592100000000     0.0228893  
C        C      0.157100000000     0.187300000000     0.802600000000     0.0228893  
C        C      0.057400000000     0.150200000000     0.869400000000     0.0228893  
C        C      0.017500000000     0.228500000000     0.868700000000     0.0228893  
C        C      0.941300000000     0.239500000000     0.898200000000     0.0228893  
C        C      0.906400000000     0.174200000000     0.927500000000     0.0228893  
C        C      0.950000000000     0.098000000000     0.928000000000     0.0228893  
C        C      0.026500000000     0.084100000000     0.900100000000     0.0228893  
C        C      0.823200000000     0.184800000000     0.957500000000     0.0228893  
C        C      0.937200000000     0.646400000000     0.501800000000     0.0228893  
C        C      0.852400000000     0.647800000000     0.500800000000     0.0228893  
C        C      0.800300000000     0.704100000000     0.527200000000     0.0228893  
C        C      0.837600000000     0.758200000000     0.554900000000     0.0228893  
C        C      0.924900000000     0.754300000000     0.553600000000     0.0228893  
C        C      0.710000000000     0.710400000000     0.526900000000     0.0228893  
C        C      0.669100000000     0.662300000000     0.504400000000     0.0228893  
C        C      0.576600000000     0.664200000000     0.504600000000     0.0228893  
C        C      0.528000000000     0.734800000000     0.520900000000     0.0228893  
C        C      0.441100000000     0.740700000000     0.520100000000     0.0228893  
C        C      0.451200000000     0.605400000000     0.486800000000     0.0228893  
C        C      0.538240000000     0.599440000000     0.487540000000     0.0228893  
N        N      0.597280000000     0.324080000000     0.496910000000    -0.163641   
N        N      0.026830000000     0.300950000000     0.472220000000    -0.163641   
N        N      0.324080000000     0.597280000000     0.996910000000    -0.163641   
N        N      0.300950000000     0.026830000000     0.972220000000    -0.163641   
N        N      0.675920000000     0.402720000000     0.003090000000    -0.163641   
N        N      0.699050000000     0.973170000000     0.027780000000    -0.163641   
N        N      0.402720000000     0.675920000000     0.503090000000    -0.163641   
N        N      0.973170000000     0.699050000000     0.527780000000    -0.163641   
O        O      0.736640000000     0.425840000000     0.443120000000    -0.295763   
O        O      0.874890000000     0.411290000000     0.428190000000    -0.295763   
O        O      0.809400000000     0.759000000000     0.302800000000    -0.295763   
O        O      0.667200000000     0.814800000000     0.185300000000    -0.295763   
O        O      0.388860000000     0.739900000000     0.049810000000    -0.295763   
O        O      0.379440000000     0.877560000000     0.034630000000    -0.295763   
O        O      0.744500000000     0.967300000000     0.286000000000    -0.295763   
O        O      0.886200000000     0.236000000000     0.412730000000    -0.295763   
O        O      0.748190000000     0.251390000000     0.431970000000    -0.295763   
O        O      0.868800000000     0.870400000000     0.159020000000    -0.295763   
O        O      0.212240000000     0.742640000000     0.039130000000    -0.295763   
O        O      0.204520000000     0.880380000000     0.019560000000    -0.295763   
O        O      0.425840000000     0.736640000000     0.943120000000    -0.295763   
O        O      0.411290000000     0.874890000000     0.928190000000    -0.295763   
O        O      0.759000000000     0.809400000000     0.802800000000    -0.295763   
O        O      0.814800000000     0.667200000000     0.685300000000    -0.295763   
O        O      0.739900000000     0.388860000000     0.549810000000    -0.295763   
O        O      0.877560000000     0.379440000000     0.534630000000    -0.295763   
O        O      0.967300000000     0.744500000000     0.786000000000    -0.295763   
O        O      0.236000000000     0.886200000000     0.912730000000    -0.295763   
O        O      0.251390000000     0.748190000000     0.931970000000    -0.295763   
O        O      0.870400000000     0.868800000000     0.659020000000    -0.295763   
O        O      0.742640000000     0.212240000000     0.539130000000    -0.295763   
O        O      0.880380000000     0.204520000000     0.519560000000    -0.295763   
O        O      0.574160000000     0.263360000000     0.056880000000    -0.295763   
O        O      0.588710000000     0.125110000000     0.071810000000    -0.295763   
O        O      0.241000000000     0.190600000000     0.197200000000    -0.295763   
O        O      0.185200000000     0.332800000000     0.314700000000    -0.295763   
O        O      0.260100000000     0.611140000000     0.450190000000    -0.295763   
O        O      0.122440000000     0.620560000000     0.465370000000    -0.295763   
O        O      0.032700000000     0.255500000000     0.214000000000    -0.295763   
O        O      0.764000000000     0.113800000000     0.087270000000    -0.295763   
O        O      0.748610000000     0.251810000000     0.068030000000    -0.295763   
O        O      0.129600000000     0.131200000000     0.340980000000    -0.295763   
O        O      0.257360000000     0.787760000000     0.460870000000    -0.295763   
O        O      0.119620000000     0.795480000000     0.480440000000    -0.295763   
O        O      0.263360000000     0.574160000000     0.556880000000    -0.295763   
O        O      0.125110000000     0.588710000000     0.571810000000    -0.295763   
O        O      0.190600000000     0.241000000000     0.697200000000    -0.295763   
O        O      0.332800000000     0.185200000000     0.814700000000    -0.295763   
O        O      0.611140000000     0.260100000000     0.950190000000    -0.295763   
O        O      0.620560000000     0.122440000000     0.965370000000    -0.295763   
O        O      0.255500000000     0.032700000000     0.714000000000    -0.295763   
O        O      0.113800000000     0.764000000000     0.587270000000    -0.295763   
O        O      0.251810000000     0.748610000000     0.568030000000    -0.295763   
O        O      0.131200000000     0.129600000000     0.840980000000    -0.295763   
O        O      0.787760000000     0.257360000000     0.960870000000    -0.295763   
O        O      0.795480000000     0.119620000000     0.980440000000    -0.295763   


