data_HIHJUF_original

_audit_creation_method RASPA-1.0
_audit_creation_date 2022-1-28
_audit_author_name 'Felipe Lopes de Oliveira <felipe.lopes.oliveira@ibm.com>'

_cell_length_a    11.8739
_cell_length_b    11.8739
_cell_length_c    25.494
_cell_angle_alpha 90
_cell_angle_beta  90
_cell_angle_gamma 120
_cell_volume      3112.83

_symmetry_cell_setting          triclinic
_symmetry_space_group_name_Hall 'P 1'
_symmetry_space_group_name_H-M  'P 1'
_symmetry_Int_Tables_number     1

_symmetry_equiv_pos_as_xyz 'x,y,z'

loop_
_atom_site_label
_atom_site_type_symbol
_atom_site_fract_x
_atom_site_fract_y
_atom_site_fract_z
_atom_site_charge
Zn       Zn     0.413150000000     0.426940000000     0.062710000000     0.392402   
Zn       Zn     0.573060000000     0.986210000000     0.062710000000     0.392402   
Zn       Zn     0.013790000000     0.586850000000     0.062710000000     0.392402   
Zn       Zn     0.573060000000     0.586850000000     0.437290000000     0.392402   
Zn       Zn     0.413150000000     0.986210000000     0.437290000000     0.392402   
Zn       Zn     0.013790000000     0.426940000000     0.437290000000     0.392402   
Zn       Zn     0.586850000000     0.573060000000     0.937290000000     0.392402   
Zn       Zn     0.426940000000     0.013790000000     0.937290000000     0.392402   
Zn       Zn     0.986210000000     0.413150000000     0.937290000000     0.392402   
Zn       Zn     0.426940000000     0.413150000000     0.562710000000     0.392402   
Zn       Zn     0.586850000000     0.013790000000     0.562710000000     0.392402   
Zn       Zn     0.986210000000     0.573060000000     0.562710000000     0.392402   
H        H      0.398300000000     0.390600000000     0.260700000000     0.0907794  
H        H      0.609400000000     0.007700000000     0.260700000000     0.0907794  
H        H      0.992300000000     0.601700000000     0.260700000000     0.0907794  
H        H      0.609400000000     0.601700000000     0.239300000000     0.0907794  
H        H      0.398300000000     0.007700000000     0.239300000000     0.0907794  
H        H      0.992300000000     0.390600000000     0.239300000000     0.0907794  
H        H      0.601700000000     0.609400000000     0.739300000000     0.0907794  
H        H      0.390600000000     0.992300000000     0.739300000000     0.0907794  
H        H      0.007700000000     0.398300000000     0.739300000000     0.0907794  
H        H      0.390600000000     0.398300000000     0.760700000000     0.0907794  
H        H      0.601700000000     0.992300000000     0.760700000000     0.0907794  
H        H      0.007700000000     0.609400000000     0.760700000000     0.0907794  
H        H      0.224700000000     0.393500000000     0.971900000000     0.0907794  
H        H      0.606500000000     0.831200000000     0.971900000000     0.0907794  
H        H      0.168800000000     0.775300000000     0.971900000000     0.0907794  
H        H      0.606500000000     0.775300000000     0.528100000000     0.0907794  
H        H      0.224700000000     0.831200000000     0.528100000000     0.0907794  
H        H      0.168800000000     0.393500000000     0.528100000000     0.0907794  
H        H      0.775300000000     0.606500000000     0.028100000000     0.0907794  
H        H      0.393500000000     0.168800000000     0.028100000000     0.0907794  
H        H      0.831200000000     0.224700000000     0.028100000000     0.0907794  
H        H      0.393500000000     0.224700000000     0.471900000000     0.0907794  
H        H      0.775300000000     0.168800000000     0.471900000000     0.0907794  
H        H      0.831200000000     0.606500000000     0.471900000000     0.0907794  
H        H      0.395400000000     0.122500000000     0.166700000000     0.0907794  
H        H      0.877500000000     0.272900000000     0.166700000000     0.0907794  
H        H      0.727100000000     0.604600000000     0.166700000000     0.0907794  
H        H      0.877500000000     0.604600000000     0.333300000000     0.0907794  
H        H      0.395400000000     0.272900000000     0.333300000000     0.0907794  
H        H      0.727100000000     0.122500000000     0.333300000000     0.0907794  
H        H      0.604600000000     0.877500000000     0.833300000000     0.0907794  
H        H      0.122500000000     0.727100000000     0.833300000000     0.0907794  
H        H      0.272900000000     0.395400000000     0.833300000000     0.0907794  
H        H      0.122500000000     0.395400000000     0.666700000000     0.0907794  
H        H      0.604600000000     0.727100000000     0.666700000000     0.0907794  
H        H      0.272900000000     0.877500000000     0.666700000000     0.0907794  
H        H      0.244000000000     0.466000000000     0.146000000000     0.0907794  
H        H      0.534000000000     0.778000000000     0.146000000000     0.0907794  
H        H      0.222000000000     0.756000000000     0.146000000000     0.0907794  
H        H      0.534000000000     0.756000000000     0.354000000000     0.0907794  
H        H      0.244000000000     0.778000000000     0.354000000000     0.0907794  
H        H      0.222000000000     0.466000000000     0.354000000000     0.0907794  
H        H      0.756000000000     0.534000000000     0.854000000000     0.0907794  
H        H      0.466000000000     0.222000000000     0.854000000000     0.0907794  
H        H      0.778000000000     0.244000000000     0.854000000000     0.0907794  
H        H      0.466000000000     0.244000000000     0.646000000000     0.0907794  
H        H      0.756000000000     0.222000000000     0.646000000000     0.0907794  
H        H      0.778000000000     0.534000000000     0.646000000000     0.0907794  
H        H      0.131000000000     0.497000000000     0.154000000000     0.0907794  
H        H      0.503000000000     0.634000000000     0.154000000000     0.0907794  
H        H      0.366000000000     0.869000000000     0.154000000000     0.0907794  
H        H      0.503000000000     0.869000000000     0.346000000000     0.0907794  
H        H      0.131000000000     0.634000000000     0.346000000000     0.0907794  
H        H      0.366000000000     0.497000000000     0.346000000000     0.0907794  
H        H      0.869000000000     0.503000000000     0.846000000000     0.0907794  
H        H      0.497000000000     0.366000000000     0.846000000000     0.0907794  
H        H      0.634000000000     0.131000000000     0.846000000000     0.0907794  
H        H      0.497000000000     0.131000000000     0.654000000000     0.0907794  
H        H      0.869000000000     0.366000000000     0.654000000000     0.0907794  
H        H      0.634000000000     0.503000000000     0.654000000000     0.0907794  
C        C      0.407100000000     0.348900000000     0.159900000000     0.0897775  
C        C      0.651100000000     0.058200000000     0.159900000000     0.0897775  
C        C      0.941800000000     0.592900000000     0.159900000000     0.0897775  
C        C      0.651100000000     0.592900000000     0.340100000000     0.0897775  
C        C      0.407100000000     0.058200000000     0.340100000000     0.0897775  
C        C      0.941800000000     0.348900000000     0.340100000000     0.0897775  
C        C      0.592900000000     0.651100000000     0.840100000000     0.0897775  
C        C      0.348900000000     0.941800000000     0.840100000000     0.0897775  
C        C      0.058200000000     0.407100000000     0.840100000000     0.0897775  
C        C      0.348900000000     0.407100000000     0.659900000000     0.0897775  
C        C      0.592900000000     0.941800000000     0.659900000000     0.0897775  
C        C      0.058200000000     0.651100000000     0.659900000000     0.0897775  
C        C      0.402600000000     0.269600000000     0.206000000000     0.0897775  
C        C      0.730400000000     0.133000000000     0.206000000000     0.0897775  
C        C      0.867000000000     0.597400000000     0.206000000000     0.0897775  
C        C      0.730400000000     0.597400000000     0.294000000000     0.0897775  
C        C      0.402600000000     0.133000000000     0.294000000000     0.0897775  
C        C      0.867000000000     0.269600000000     0.294000000000     0.0897775  
C        C      0.597400000000     0.730400000000     0.794000000000     0.0897775  
C        C      0.269600000000     0.867000000000     0.794000000000     0.0897775  
C        C      0.133000000000     0.402600000000     0.794000000000     0.0897775  
C        C      0.269600000000     0.402600000000     0.706000000000     0.0897775  
C        C      0.597400000000     0.867000000000     0.706000000000     0.0897775  
C        C      0.133000000000     0.730400000000     0.706000000000     0.0897775  
C        C      0.399700000000     0.313500000000     0.256300000000     0.0897775  
C        C      0.686500000000     0.086200000000     0.256300000000     0.0897775  
C        C      0.913800000000     0.600300000000     0.256300000000     0.0897775  
C        C      0.686500000000     0.600300000000     0.243700000000     0.0897775  
C        C      0.399700000000     0.086200000000     0.243700000000     0.0897775  
C        C      0.913800000000     0.313500000000     0.243700000000     0.0897775  
C        C      0.600300000000     0.686500000000     0.743700000000     0.0897775  
C        C      0.313500000000     0.913800000000     0.743700000000     0.0897775  
C        C      0.086200000000     0.399700000000     0.743700000000     0.0897775  
C        C      0.313500000000     0.399700000000     0.756300000000     0.0897775  
C        C      0.600300000000     0.913800000000     0.756300000000     0.0897775  
C        C      0.086200000000     0.686500000000     0.756300000000     0.0897775  
C        C      0.165500000000     0.447600000000     0.079900000000     0.0897775  
C        C      0.552400000000     0.717900000000     0.079900000000     0.0897775  
C        C      0.282100000000     0.834500000000     0.079900000000     0.0897775  
C        C      0.552400000000     0.834500000000     0.420100000000     0.0897775  
C        C      0.165500000000     0.717900000000     0.420100000000     0.0897775  
C        C      0.282100000000     0.447600000000     0.420100000000     0.0897775  
C        C      0.834500000000     0.552400000000     0.920100000000     0.0897775  
C        C      0.447600000000     0.282100000000     0.920100000000     0.0897775  
C        C      0.717900000000     0.165500000000     0.920100000000     0.0897775  
C        C      0.447600000000     0.165500000000     0.579900000000     0.0897775  
C        C      0.834500000000     0.282100000000     0.579900000000     0.0897775  
C        C      0.717900000000     0.552400000000     0.579900000000     0.0897775  
C        C      0.192900000000     0.413000000000     0.001800000000     0.0897775  
C        C      0.587000000000     0.779900000000     0.001800000000     0.0897775  
C        C      0.220100000000     0.807100000000     0.001800000000     0.0897775  
C        C      0.587000000000     0.807100000000     0.498200000000     0.0897775  
C        C      0.192900000000     0.779900000000     0.498200000000     0.0897775  
C        C      0.220100000000     0.413000000000     0.498200000000     0.0897775  
C        C      0.807100000000     0.587000000000     0.998200000000     0.0897775  
C        C      0.413000000000     0.220100000000     0.998200000000     0.0897775  
C        C      0.779900000000     0.192900000000     0.998200000000     0.0897775  
C        C      0.413000000000     0.192900000000     0.501800000000     0.0897775  
C        C      0.807100000000     0.220100000000     0.501800000000     0.0897775  
C        C      0.779900000000     0.587000000000     0.501800000000     0.0897775  
C        C      0.398700000000     0.155300000000     0.200200000000     0.0897775  
C        C      0.844700000000     0.243400000000     0.200200000000     0.0897775  
C        C      0.756600000000     0.601300000000     0.200200000000     0.0897775  
C        C      0.844700000000     0.601300000000     0.299800000000     0.0897775  
C        C      0.398700000000     0.243400000000     0.299800000000     0.0897775  
C        C      0.756600000000     0.155300000000     0.299800000000     0.0897775  
C        C      0.601300000000     0.844700000000     0.799800000000     0.0897775  
C        C      0.155300000000     0.756600000000     0.799800000000     0.0897775  
C        C      0.243400000000     0.398700000000     0.799800000000     0.0897775  
C        C      0.155300000000     0.398700000000     0.700200000000     0.0897775  
C        C      0.601300000000     0.756600000000     0.700200000000     0.0897775  
C        C      0.243400000000     0.844700000000     0.700200000000     0.0897775  
N        N      0.076400000000     0.460100000000     0.053100000000    -0.198376   
N        N      0.539900000000     0.616300000000     0.053100000000    -0.198376   
N        N      0.383700000000     0.923600000000     0.053100000000    -0.198376   
N        N      0.539900000000     0.923600000000     0.446900000000    -0.198376   
N        N      0.076400000000     0.616300000000     0.446900000000    -0.198376   
N        N      0.383700000000     0.460100000000     0.446900000000    -0.198376   
N        N      0.923600000000     0.539900000000     0.946900000000    -0.198376   
N        N      0.460100000000     0.383700000000     0.946900000000    -0.198376   
N        N      0.616300000000     0.076400000000     0.946900000000    -0.198376   
N        N      0.460100000000     0.076400000000     0.553100000000    -0.198376   
N        N      0.923600000000     0.383700000000     0.553100000000    -0.198376   
N        N      0.616300000000     0.539900000000     0.553100000000    -0.198376   
N        N      0.242300000000     0.419500000000     0.050400000000    -0.198376   
N        N      0.580500000000     0.822800000000     0.050400000000    -0.198376   
N        N      0.177200000000     0.757700000000     0.050400000000    -0.198376   
N        N      0.580500000000     0.757700000000     0.449600000000    -0.198376   
N        N      0.242300000000     0.822800000000     0.449600000000    -0.198376   
N        N      0.177200000000     0.419500000000     0.449600000000    -0.198376   
N        N      0.757700000000     0.580500000000     0.949600000000    -0.198376   
N        N      0.419500000000     0.177200000000     0.949600000000    -0.198376   
N        N      0.822800000000     0.242300000000     0.949600000000    -0.198376   
N        N      0.419500000000     0.242300000000     0.550400000000    -0.198376   
N        N      0.757700000000     0.177200000000     0.550400000000    -0.198376   
N        N      0.822800000000     0.580500000000     0.550400000000    -0.198376   
N        N      0.176600000000     0.460500000000     0.133100000000    -0.198376   
N        N      0.539500000000     0.716100000000     0.133100000000    -0.198376   
N        N      0.283900000000     0.823400000000     0.133100000000    -0.198376   
N        N      0.539500000000     0.823400000000     0.366900000000    -0.198376   
N        N      0.176600000000     0.716100000000     0.366900000000    -0.198376   
N        N      0.283900000000     0.460500000000     0.366900000000    -0.198376   
N        N      0.823400000000     0.539500000000     0.866900000000    -0.198376   
N        N      0.460500000000     0.283900000000     0.866900000000    -0.198376   
N        N      0.716100000000     0.176600000000     0.866900000000    -0.198376   
N        N      0.460500000000     0.176600000000     0.633100000000    -0.198376   
N        N      0.823400000000     0.283900000000     0.633100000000    -0.198376   
N        N      0.716100000000     0.539500000000     0.633100000000    -0.198376   
N        N      0.096700000000     0.436600000000     0.000700000000    -0.198376   
N        N      0.563400000000     0.660100000000     0.000700000000    -0.198376   
N        N      0.339900000000     0.903300000000     0.000700000000    -0.198376   
N        N      0.563400000000     0.903300000000     0.499300000000    -0.198376   
N        N      0.096700000000     0.660100000000     0.499300000000    -0.198376   
N        N      0.339900000000     0.436600000000     0.499300000000    -0.198376   
N        N      0.903300000000     0.563400000000     0.999300000000    -0.198376   
N        N      0.436600000000     0.339900000000     0.999300000000    -0.198376   
N        N      0.660100000000     0.096700000000     0.999300000000    -0.198376   
N        N      0.436600000000     0.096700000000     0.500700000000    -0.198376   
N        N      0.903300000000     0.339900000000     0.500700000000    -0.198376   
N        N      0.660100000000     0.563400000000     0.500700000000    -0.198376   
O        O      0.412700000000     0.307300000000     0.114400000000    -0.295729   
O        O      0.692700000000     0.105400000000     0.114400000000    -0.295729   
O        O      0.894600000000     0.587300000000     0.114400000000    -0.295729   
O        O      0.692700000000     0.587300000000     0.385600000000    -0.295729   
O        O      0.412700000000     0.105400000000     0.385600000000    -0.295729   
O        O      0.894600000000     0.307300000000     0.385600000000    -0.295729   
O        O      0.587300000000     0.692700000000     0.885600000000    -0.295729   
O        O      0.307300000000     0.894600000000     0.885600000000    -0.295729   
O        O      0.105400000000     0.412700000000     0.885600000000    -0.295729   
O        O      0.307300000000     0.412700000000     0.614400000000    -0.295729   
O        O      0.587300000000     0.894600000000     0.614400000000    -0.295729   
O        O      0.105400000000     0.692700000000     0.614400000000    -0.295729   
O        O      0.403100000000     0.450400000000     0.165800000000    -0.295729   
O        O      0.549600000000     0.952700000000     0.165800000000    -0.295729   
O        O      0.047300000000     0.596900000000     0.165800000000    -0.295729   
O        O      0.549600000000     0.596900000000     0.334200000000    -0.295729   
O        O      0.403100000000     0.952700000000     0.334200000000    -0.295729   
O        O      0.047300000000     0.450400000000     0.334200000000    -0.295729   
O        O      0.596900000000     0.549600000000     0.834200000000    -0.295729   
O        O      0.450400000000     0.047300000000     0.834200000000    -0.295729   
O        O      0.952700000000     0.403100000000     0.834200000000    -0.295729   
O        O      0.450400000000     0.403100000000     0.665800000000    -0.295729   
O        O      0.596900000000     0.047300000000     0.665800000000    -0.295729   
O        O      0.952700000000     0.549600000000     0.665800000000    -0.295729   


