data_HIHNUJ_original

_audit_creation_method RASPA-1.0
_audit_creation_date 2022-1-31
_audit_author_name 'Felipe Lopes de Oliveira <felipe.lopes.oliveira@ibm.com>'

_cell_length_a    11.2184
_cell_length_b    17.9218
_cell_length_c    17.9218
_cell_angle_alpha 90
_cell_angle_beta  90
_cell_angle_gamma 90
_cell_volume      3603.25

_symmetry_cell_setting          triclinic
_symmetry_space_group_name_Hall 'P 1'
_symmetry_space_group_name_H-M  'P 1'
_symmetry_Int_Tables_number     1

_symmetry_equiv_pos_as_xyz 'x,y,z'

loop_
_atom_site_label
_atom_site_type_symbol
_atom_site_fract_x
_atom_site_fract_y
_atom_site_fract_z
_atom_site_charge
In       In     0.250000000000     0.183990000000     0.816010000000     2.36132    
In       In     0.750000000000     0.816010000000     0.183990000000     2.36132    
In       In     0.500000000000     0.683990000000     0.683990000000     2.36132    
In       In     0.000000000000     0.316010000000     0.316010000000     2.36132    
H        H      0.094100000000     0.247900000000     0.570800000000     0.0737818  
H        H      0.780200000000     0.354700000000     0.539200000000     0.0737818  
H        H      0.873100000000     0.286100000000     0.746600000000     0.0737818  
H        H      0.594100000000     0.752100000000     0.429200000000     0.0737818  
H        H      0.280200000000     0.645300000000     0.460800000000     0.0737818  
H        H      0.373100000000     0.713900000000     0.253400000000     0.0737818  
H        H      0.344100000000     0.929200000000     0.747900000000     0.0737818  
H        H      0.030200000000     0.960800000000     0.854700000000     0.0737818  
H        H      0.123100000000     0.753400000000     0.786100000000     0.0737818  
H        H      0.844100000000     0.070800000000     0.252100000000     0.0737818  
H        H      0.530200000000     0.039200000000     0.145300000000     0.0737818  
H        H      0.623100000000     0.246600000000     0.213900000000     0.0737818  
H        H      0.155900000000     0.252100000000     0.070800000000     0.0737818  
H        H      0.469800000000     0.145300000000     0.039200000000     0.0737818  
H        H      0.376900000000     0.213900000000     0.246600000000     0.0737818  
H        H      0.655900000000     0.747900000000     0.929200000000     0.0737818  
H        H      0.969800000000     0.854700000000     0.960800000000     0.0737818  
H        H      0.876900000000     0.786100000000     0.753400000000     0.0737818  
H        H      0.905900000000     0.570800000000     0.247900000000     0.0737818  
H        H      0.219800000000     0.539200000000     0.354700000000     0.0737818  
H        H      0.126900000000     0.746600000000     0.286100000000     0.0737818  
H        H      0.405900000000     0.429200000000     0.752100000000     0.0737818  
H        H      0.719800000000     0.460800000000     0.645300000000     0.0737818  
H        H      0.626900000000     0.253400000000     0.713900000000     0.0737818  
C        C      0.963600000000     0.305980000000     0.461000000000     0.0554263  
C        C      0.807170000000     0.323490000000     0.647400000000     0.0554263  
C        C      0.087500000000     0.229780000000     0.719490000000     0.0554263  
C        C      0.940100000000     0.300660000000     0.543030000000     0.0554263  
C        C      0.996300000000     0.261160000000     0.666770000000     0.0554263  
C        C      0.021410000000     0.267050000000     0.590110000000     0.0554263  
C        C      0.834300000000     0.330010000000     0.571610000000     0.0554263  
C        C      0.889650000000     0.289720000000     0.694720000000     0.0554263  
C        C      0.463600000000     0.694020000000     0.539000000000     0.0554263  
C        C      0.307170000000     0.676510000000     0.352600000000     0.0554263  
C        C      0.587500000000     0.770220000000     0.280510000000     0.0554263  
C        C      0.440100000000     0.699340000000     0.456970000000     0.0554263  
C        C      0.496300000000     0.738840000000     0.333230000000     0.0554263  
C        C      0.521410000000     0.732950000000     0.409890000000     0.0554263  
C        C      0.334300000000     0.669990000000     0.428390000000     0.0554263  
C        C      0.389650000000     0.710280000000     0.305280000000     0.0554263  
C        C      0.213600000000     0.039000000000     0.805980000000     0.0554263  
C        C      0.057170000000     0.852600000000     0.823490000000     0.0554263  
C        C      0.337500000000     0.780510000000     0.729780000000     0.0554263  
C        C      0.190100000000     0.956970000000     0.800660000000     0.0554263  
C        C      0.246300000000     0.833230000000     0.761160000000     0.0554263  
C        C      0.271410000000     0.909890000000     0.767050000000     0.0554263  
C        C      0.084300000000     0.928390000000     0.830010000000     0.0554263  
C        C      0.139650000000     0.805280000000     0.789720000000     0.0554263  
C        C      0.713600000000     0.961000000000     0.194020000000     0.0554263  
C        C      0.557170000000     0.147400000000     0.176510000000     0.0554263  
C        C      0.837500000000     0.219490000000     0.270220000000     0.0554263  
C        C      0.690100000000     0.043030000000     0.199340000000     0.0554263  
C        C      0.746300000000     0.166770000000     0.238840000000     0.0554263  
C        C      0.771410000000     0.090110000000     0.232950000000     0.0554263  
C        C      0.584300000000     0.071610000000     0.169990000000     0.0554263  
C        C      0.639650000000     0.194720000000     0.210280000000     0.0554263  
C        C      0.286400000000     0.194020000000     0.961000000000     0.0554263  
C        C      0.442830000000     0.176510000000     0.147400000000     0.0554263  
C        C      0.162500000000     0.270220000000     0.219490000000     0.0554263  
C        C      0.309900000000     0.199340000000     0.043030000000     0.0554263  
C        C      0.253700000000     0.238840000000     0.166770000000     0.0554263  
C        C      0.228590000000     0.232950000000     0.090110000000     0.0554263  
C        C      0.415700000000     0.169990000000     0.071610000000     0.0554263  
C        C      0.360350000000     0.210280000000     0.194720000000     0.0554263  
C        C      0.786400000000     0.805980000000     0.039000000000     0.0554263  
C        C      0.942830000000     0.823490000000     0.852600000000     0.0554263  
C        C      0.662500000000     0.729780000000     0.780510000000     0.0554263  
C        C      0.809900000000     0.800660000000     0.956970000000     0.0554263  
C        C      0.753700000000     0.761160000000     0.833230000000     0.0554263  
C        C      0.728590000000     0.767050000000     0.909890000000     0.0554263  
C        C      0.915700000000     0.830010000000     0.928390000000     0.0554263  
C        C      0.860350000000     0.789720000000     0.805280000000     0.0554263  
C        C      0.036400000000     0.461000000000     0.305980000000     0.0554263  
C        C      0.192830000000     0.647400000000     0.323490000000     0.0554263  
C        C      0.912500000000     0.719490000000     0.229780000000     0.0554263  
C        C      0.059900000000     0.543030000000     0.300660000000     0.0554263  
C        C      0.003700000000     0.666770000000     0.261160000000     0.0554263  
C        C      0.978590000000     0.590110000000     0.267050000000     0.0554263  
C        C      0.165700000000     0.571610000000     0.330010000000     0.0554263  
C        C      0.110350000000     0.694720000000     0.289720000000     0.0554263  
C        C      0.536400000000     0.539000000000     0.694020000000     0.0554263  
C        C      0.692830000000     0.352600000000     0.676510000000     0.0554263  
C        C      0.412500000000     0.280510000000     0.770220000000     0.0554263  
C        C      0.559900000000     0.456970000000     0.699340000000     0.0554263  
C        C      0.503700000000     0.333230000000     0.738840000000     0.0554263  
C        C      0.478590000000     0.409890000000     0.732950000000     0.0554263  
C        C      0.665700000000     0.428390000000     0.669990000000     0.0554263  
C        C      0.610350000000     0.305280000000     0.710280000000     0.0554263  
O        O      0.889970000000     0.338570000000     0.419580000000    -0.461354   
O        O      0.072170000000     0.237440000000     0.788890000000    -0.461354   
O        O      0.058110000000     0.277270000000     0.433610000000    -0.461354   
O        O      0.180560000000     0.197980000000     0.695140000000    -0.461354   
O        O      0.389970000000     0.661430000000     0.580420000000    -0.461354   
O        O      0.572170000000     0.762560000000     0.211110000000    -0.461354   
O        O      0.558110000000     0.722730000000     0.566390000000    -0.461354   
O        O      0.680560000000     0.802020000000     0.304860000000    -0.461354   
O        O      0.139970000000     0.080420000000     0.838570000000    -0.461354   
O        O      0.322170000000     0.711110000000     0.737440000000    -0.461354   
O        O      0.308110000000     0.066390000000     0.777270000000    -0.461354   
O        O      0.430560000000     0.804860000000     0.697980000000    -0.461354   
O        O      0.639970000000     0.919580000000     0.161430000000    -0.461354   
O        O      0.822170000000     0.288890000000     0.262560000000    -0.461354   
O        O      0.808110000000     0.933610000000     0.222730000000    -0.461354   
O        O      0.930560000000     0.195140000000     0.302020000000    -0.461354   
O        O      0.360030000000     0.161430000000     0.919580000000    -0.461354   
O        O      0.177830000000     0.262560000000     0.288890000000    -0.461354   
O        O      0.191890000000     0.222730000000     0.933610000000    -0.461354   
O        O      0.069440000000     0.302020000000     0.195140000000    -0.461354   
O        O      0.860030000000     0.838570000000     0.080420000000    -0.461354   
O        O      0.677830000000     0.737440000000     0.711110000000    -0.461354   
O        O      0.691890000000     0.777270000000     0.066390000000    -0.461354   
O        O      0.569440000000     0.697980000000     0.804860000000    -0.461354   
O        O      0.110030000000     0.419580000000     0.338570000000    -0.461354   
O        O      0.927830000000     0.788890000000     0.237440000000    -0.461354   
O        O      0.941890000000     0.433610000000     0.277270000000    -0.461354   
O        O      0.819440000000     0.695140000000     0.197980000000    -0.461354   
O        O      0.610030000000     0.580420000000     0.661430000000    -0.461354   
O        O      0.427830000000     0.211110000000     0.762560000000    -0.461354   
O        O      0.441890000000     0.566390000000     0.722730000000    -0.461354   
O        O      0.319440000000     0.304860000000     0.802020000000    -0.461354   


