data_HIMSAY_original

_audit_creation_method RASPA-1.0
_audit_creation_date 2022-1-29
_audit_author_name 'Felipe Lopes de Oliveira <felipe.lopes.oliveira@ibm.com>'

_cell_length_a    11.361
_cell_length_b    12.645
_cell_length_c    14.775
_cell_angle_alpha 90
_cell_angle_beta  90
_cell_angle_gamma 90
_cell_volume      2122.57

_symmetry_cell_setting          triclinic
_symmetry_space_group_name_Hall 'P 1'
_symmetry_space_group_name_H-M  'P 1'
_symmetry_Int_Tables_number     1

_symmetry_equiv_pos_as_xyz 'x,y,z'

loop_
_atom_site_label
_atom_site_type_symbol
_atom_site_fract_x
_atom_site_fract_y
_atom_site_fract_z
_atom_site_charge
Zn       Zn     0.500000000000     0.000000000000     0.750000000000     0.376228   
Zn       Zn     0.500000000000     0.000000000000     0.250000000000     0.376228   
H        H      0.693800000000     0.716700000000     0.863000000000     0.0568339  
H        H      0.829600000000     0.579900000000     0.863300000000     0.0568339  
H        H      0.707800000000     0.848800000000     0.720800000000     0.0568339  
H        H      0.911700000000     0.843500000000     0.722000000000     0.0568339  
H        H      0.306200000000     0.283300000000     0.863000000000     0.0568339  
H        H      0.170400000000     0.420100000000     0.863300000000     0.0568339  
H        H      0.292200000000     0.151200000000     0.720800000000     0.0568339  
H        H      0.088300000000     0.156500000000     0.722000000000     0.0568339  
H        H      0.306200000000     0.716700000000     0.637000000000     0.0568339  
H        H      0.170400000000     0.579900000000     0.636700000000     0.0568339  
H        H      0.292200000000     0.848800000000     0.779200000000     0.0568339  
H        H      0.088300000000     0.843500000000     0.778000000000     0.0568339  
H        H      0.693800000000     0.283300000000     0.637000000000     0.0568339  
H        H      0.829600000000     0.420100000000     0.636700000000     0.0568339  
H        H      0.707800000000     0.151200000000     0.779200000000     0.0568339  
H        H      0.911700000000     0.156500000000     0.778000000000     0.0568339  
H        H      0.306200000000     0.283300000000     0.137000000000     0.0568339  
H        H      0.170400000000     0.420100000000     0.136700000000     0.0568339  
H        H      0.292200000000     0.151200000000     0.279200000000     0.0568339  
H        H      0.088300000000     0.156500000000     0.278000000000     0.0568339  
H        H      0.693800000000     0.716700000000     0.137000000000     0.0568339  
H        H      0.829600000000     0.579900000000     0.136700000000     0.0568339  
H        H      0.707800000000     0.848800000000     0.279200000000     0.0568339  
H        H      0.911700000000     0.843500000000     0.278000000000     0.0568339  
H        H      0.693800000000     0.283300000000     0.363000000000     0.0568339  
H        H      0.829600000000     0.420100000000     0.363300000000     0.0568339  
H        H      0.707800000000     0.151200000000     0.220800000000     0.0568339  
H        H      0.911700000000     0.156500000000     0.222000000000     0.0568339  
H        H      0.306200000000     0.716700000000     0.363000000000     0.0568339  
H        H      0.170400000000     0.579900000000     0.363300000000     0.0568339  
H        H      0.292200000000     0.848800000000     0.220800000000     0.0568339  
H        H      0.088300000000     0.843500000000     0.222000000000     0.0568339  
C        C      0.536900000000     0.848000000000     0.919870000000     0.00675121 
C        C      0.719750000000     0.687890000000     0.918960000000     0.00675121 
C        C      0.801130000000     0.607460000000     0.918970000000     0.00675121 
C        C      0.919130000000     0.408930000000     0.919160000000     0.00675121 
C        C      0.750100000000     0.911920000000     0.733370000000     0.00675121 
C        C      0.871800000000     0.908170000000     0.733310000000     0.00675121 
C        C      0.463100000000     0.152000000000     0.919870000000     0.00675121 
C        C      0.280250000000     0.312110000000     0.918960000000     0.00675121 
C        C      0.198870000000     0.392540000000     0.918970000000     0.00675121 
C        C      0.080870000000     0.591070000000     0.919160000000     0.00675121 
C        C      0.249900000000     0.088080000000     0.733370000000     0.00675121 
C        C      0.128200000000     0.091830000000     0.733310000000     0.00675121 
C        C      0.463100000000     0.848000000000     0.580130000000     0.00675121 
C        C      0.280250000000     0.687890000000     0.581040000000     0.00675121 
C        C      0.198870000000     0.607460000000     0.581030000000     0.00675121 
C        C      0.080870000000     0.408930000000     0.580840000000     0.00675121 
C        C      0.249900000000     0.911920000000     0.766630000000     0.00675121 
C        C      0.128200000000     0.908170000000     0.766690000000     0.00675121 
C        C      0.536900000000     0.152000000000     0.580130000000     0.00675121 
C        C      0.719750000000     0.312110000000     0.581040000000     0.00675121 
C        C      0.801130000000     0.392540000000     0.581030000000     0.00675121 
C        C      0.919130000000     0.591070000000     0.580840000000     0.00675121 
C        C      0.750100000000     0.088080000000     0.766630000000     0.00675121 
C        C      0.871800000000     0.091830000000     0.766690000000     0.00675121 
C        C      0.463100000000     0.152000000000     0.080130000000     0.00675121 
C        C      0.280250000000     0.312110000000     0.081040000000     0.00675121 
C        C      0.198870000000     0.392540000000     0.081030000000     0.00675121 
C        C      0.080870000000     0.591070000000     0.080840000000     0.00675121 
C        C      0.249900000000     0.088080000000     0.266630000000     0.00675121 
C        C      0.128200000000     0.091830000000     0.266690000000     0.00675121 
C        C      0.536900000000     0.848000000000     0.080130000000     0.00675121 
C        C      0.719750000000     0.687890000000     0.081040000000     0.00675121 
C        C      0.801130000000     0.607460000000     0.081030000000     0.00675121 
C        C      0.919130000000     0.408930000000     0.080840000000     0.00675121 
C        C      0.750100000000     0.911920000000     0.266630000000     0.00675121 
C        C      0.871800000000     0.908170000000     0.266690000000     0.00675121 
C        C      0.536900000000     0.152000000000     0.419870000000     0.00675121 
C        C      0.719750000000     0.312110000000     0.418960000000     0.00675121 
C        C      0.801130000000     0.392540000000     0.418970000000     0.00675121 
C        C      0.919130000000     0.591070000000     0.419160000000     0.00675121 
C        C      0.750100000000     0.088080000000     0.233370000000     0.00675121 
C        C      0.871800000000     0.091830000000     0.233310000000     0.00675121 
C        C      0.463100000000     0.848000000000     0.419870000000     0.00675121 
C        C      0.280250000000     0.687890000000     0.418960000000     0.00675121 
C        C      0.198870000000     0.607460000000     0.418970000000     0.00675121 
C        C      0.080870000000     0.408930000000     0.419160000000     0.00675121 
C        C      0.249900000000     0.911920000000     0.233370000000     0.00675121 
C        C      0.128200000000     0.908170000000     0.233310000000     0.00675121 
C        C      0.934650000000     0.000000000000     0.750000000000     0.00675121 
C        C      0.065350000000     0.000000000000     0.750000000000     0.00675121 
C        C      0.065350000000     0.000000000000     0.250000000000     0.00675121 
C        C      0.934650000000     0.000000000000     0.250000000000     0.00675121 
C        C      0.582930000000     0.807640000000     0.000000000000     0.00675121 
C        C      0.674430000000     0.728070000000     0.000000000000     0.00675121 
C        C      0.841700000000     0.565800000000     0.000000000000     0.00675121 
C        C      0.933300000000     0.478060000000     0.000000000000     0.00675121 
C        C      0.417070000000     0.192360000000     0.000000000000     0.00675121 
C        C      0.325570000000     0.271930000000     0.000000000000     0.00675121 
C        C      0.158300000000     0.434200000000     0.000000000000     0.00675121 
C        C      0.066700000000     0.521940000000     0.000000000000     0.00675121 
C        C      0.417070000000     0.807640000000     0.500000000000     0.00675121 
C        C      0.325570000000     0.728070000000     0.500000000000     0.00675121 
C        C      0.158300000000     0.565800000000     0.500000000000     0.00675121 
C        C      0.066700000000     0.478060000000     0.500000000000     0.00675121 
C        C      0.582930000000     0.192360000000     0.500000000000     0.00675121 
C        C      0.674430000000     0.271930000000     0.500000000000     0.00675121 
C        C      0.841700000000     0.434200000000     0.500000000000     0.00675121 
C        C      0.933300000000     0.521940000000     0.500000000000     0.00675121 
N        N      0.500480000000     0.880250000000     0.852570000000    -0.151511   
N        N      0.906300000000     0.358320000000     0.857310000000    -0.151511   
N        N      0.499520000000     0.119750000000     0.852570000000    -0.151511   
N        N      0.093700000000     0.641680000000     0.857310000000    -0.151511   
N        N      0.499520000000     0.880250000000     0.647430000000    -0.151511   
N        N      0.093700000000     0.358320000000     0.642690000000    -0.151511   
N        N      0.500480000000     0.119750000000     0.647430000000    -0.151511   
N        N      0.906300000000     0.641680000000     0.642690000000    -0.151511   
N        N      0.499520000000     0.119750000000     0.147430000000    -0.151511   
N        N      0.093700000000     0.641680000000     0.142690000000    -0.151511   
N        N      0.500480000000     0.880250000000     0.147430000000    -0.151511   
N        N      0.906300000000     0.358320000000     0.142690000000    -0.151511   
N        N      0.500480000000     0.119750000000     0.352570000000    -0.151511   
N        N      0.906300000000     0.641680000000     0.357310000000    -0.151511   
N        N      0.499520000000     0.880250000000     0.352570000000    -0.151511   
N        N      0.093700000000     0.358320000000     0.357310000000    -0.151511   
N        N      0.689460000000     0.000000000000     0.750000000000    -0.151511   
N        N      0.310540000000     0.000000000000     0.750000000000    -0.151511   
N        N      0.310540000000     0.000000000000     0.250000000000    -0.151511   
N        N      0.689460000000     0.000000000000     0.250000000000    -0.151511   


