data_HITXUE_original

_audit_creation_method RASPA-1.0
_audit_creation_date 2022-1-29
_audit_author_name 'Felipe Lopes de Oliveira <felipe.lopes.oliveira@ibm.com>'

_cell_length_a    12.83
_cell_length_b    13.795
_cell_length_c    18.815
_cell_angle_alpha 90.041
_cell_angle_beta  90
_cell_angle_gamma 90
_cell_volume      3330.06

_symmetry_cell_setting          triclinic
_symmetry_space_group_name_Hall 'P 1'
_symmetry_space_group_name_H-M  'P 1'
_symmetry_Int_Tables_number     1

_symmetry_equiv_pos_as_xyz 'x,y,z'

loop_
_atom_site_label
_atom_site_type_symbol
_atom_site_fract_x
_atom_site_fract_y
_atom_site_fract_z
_atom_site_charge
Al       Al     0.959600000000     0.889500000000     0.834500000000     6.05463    
Al       Al     0.959600000000     0.110500000000     0.665500000000     6.05463    
Al       Al     0.459600000000     0.389500000000     0.834500000000     6.05463    
Al       Al     0.459600000000     0.610500000000     0.665500000000     6.05463    
Al       Al     0.040400000000     0.110500000000     0.165500000000     6.05463    
Al       Al     0.040400000000     0.889500000000     0.334500000000     6.05463    
Al       Al     0.540400000000     0.610500000000     0.165500000000     6.05463    
Al       Al     0.540400000000     0.389500000000     0.334500000000     6.05463    
Al       Al     0.774600000000     0.117200000000     0.938500000000     6.05463    
Al       Al     0.774600000000     0.882800000000     0.561500000000     6.05463    
Al       Al     0.274600000000     0.617200000000     0.938500000000     6.05463    
Al       Al     0.274600000000     0.382800000000     0.561500000000     6.05463    
Al       Al     0.225400000000     0.882800000000     0.061500000000     6.05463    
Al       Al     0.225400000000     0.117200000000     0.438500000000     6.05463    
Al       Al     0.725400000000     0.382800000000     0.061500000000     6.05463    
Al       Al     0.725400000000     0.617200000000     0.438500000000     6.05463    
Al       Al     0.096100000000     0.226700000000     0.950500000000     6.05463    
Al       Al     0.096100000000     0.773300000000     0.549500000000     6.05463    
Al       Al     0.596100000000     0.726700000000     0.950500000000     6.05463    
Al       Al     0.596100000000     0.273300000000     0.549500000000     6.05463    
Al       Al     0.903900000000     0.773300000000     0.049500000000     6.05463    
Al       Al     0.903900000000     0.226700000000     0.450500000000     6.05463    
Al       Al     0.403900000000     0.273300000000     0.049500000000     6.05463    
Al       Al     0.403900000000     0.726700000000     0.450500000000     6.05463    
P        P      0.096300000000     0.772200000000     0.944600000000     1.70357    
P        P      0.096300000000     0.227800000000     0.555400000000     1.70357    
P        P      0.596300000000     0.272200000000     0.944600000000     1.70357    
P        P      0.596300000000     0.727800000000     0.555400000000     1.70357    
P        P      0.903700000000     0.227800000000     0.055400000000     1.70357    
P        P      0.903700000000     0.772200000000     0.444600000000     1.70357    
P        P      0.403700000000     0.727800000000     0.055400000000     1.70357    
P        P      0.403700000000     0.272200000000     0.444600000000     1.70357    
P        P      0.767600000000     0.888700000000     0.938200000000     1.70357    
P        P      0.767600000000     0.111300000000     0.561800000000     1.70357    
P        P      0.267600000000     0.388700000000     0.938200000000     1.70357    
P        P      0.267600000000     0.611300000000     0.561800000000     1.70357    
P        P      0.232400000000     0.111300000000     0.061800000000     1.70357    
P        P      0.232400000000     0.888700000000     0.438200000000     1.70357    
P        P      0.732400000000     0.611300000000     0.061800000000     1.70357    
P        P      0.732400000000     0.388700000000     0.438200000000     1.70357    
P        P      0.964300000000     0.118700000000     0.833300000000     1.70357    
P        P      0.964300000000     0.881300000000     0.666700000000     1.70357    
P        P      0.464300000000     0.618700000000     0.833300000000     1.70357    
P        P      0.464300000000     0.381300000000     0.666700000000     1.70357    
P        P      0.035700000000     0.881300000000     0.166700000000     1.70357    
P        P      0.035700000000     0.118700000000     0.333300000000     1.70357    
P        P      0.535700000000     0.381300000000     0.166700000000     1.70357    
P        P      0.535700000000     0.618700000000     0.333300000000     1.70357    
C        C      0.967200000000     0.505500000000     0.550900000000    -0.0420074  
C        C      0.967200000000     0.494500000000     0.949100000000    -0.0420074  
C        C      0.467200000000     0.005500000000     0.550900000000    -0.0420074  
C        C      0.467200000000     0.994500000000     0.949100000000    -0.0420074  
C        C      0.032800000000     0.494500000000     0.449100000000    -0.0420074  
C        C      0.032800000000     0.505500000000     0.050900000000    -0.0420074  
C        C      0.532800000000     0.994500000000     0.449100000000    -0.0420074  
C        C      0.532800000000     0.005500000000     0.050900000000    -0.0420074  
C        C      0.743400000000     0.706000000000     0.747700000000    -0.0420074  
C        C      0.743400000000     0.294000000000     0.752300000000    -0.0420074  
C        C      0.243400000000     0.206000000000     0.747700000000    -0.0420074  
C        C      0.243400000000     0.794000000000     0.752300000000    -0.0420074  
C        C      0.256600000000     0.294000000000     0.252300000000    -0.0420074  
C        C      0.256600000000     0.706000000000     0.247700000000    -0.0420074  
C        C      0.756600000000     0.794000000000     0.252300000000    -0.0420074  
C        C      0.756600000000     0.206000000000     0.247700000000    -0.0420074  
C        C      0.969800000000     0.579500000000     0.673100000000    -0.0420074  
C        C      0.969800000000     0.420500000000     0.826900000000    -0.0420074  
C        C      0.469800000000     0.079500000000     0.673100000000    -0.0420074  
C        C      0.469800000000     0.920500000000     0.826900000000    -0.0420074  
C        C      0.030200000000     0.420500000000     0.326900000000    -0.0420074  
C        C      0.030200000000     0.579500000000     0.173100000000    -0.0420074  
C        C      0.530200000000     0.920500000000     0.326900000000    -0.0420074  
C        C      0.530200000000     0.079500000000     0.173100000000    -0.0420074  
C        C      0.858200000000     0.624100000000     0.681000000000    -0.0420074  
C        C      0.858200000000     0.375900000000     0.819000000000    -0.0420074  
C        C      0.358200000000     0.124100000000     0.681000000000    -0.0420074  
C        C      0.358200000000     0.875900000000     0.819000000000    -0.0420074  
C        C      0.141800000000     0.375900000000     0.319000000000    -0.0420074  
C        C      0.141800000000     0.624100000000     0.181000000000    -0.0420074  
C        C      0.641800000000     0.875900000000     0.319000000000    -0.0420074  
C        C      0.641800000000     0.124100000000     0.181000000000    -0.0420074  
C        C      0.907000000000     0.406100000000     0.654500000000    -0.0420074  
C        C      0.907000000000     0.593900000000     0.845500000000    -0.0420074  
C        C      0.407000000000     0.906100000000     0.654500000000    -0.0420074  
C        C      0.407000000000     0.093900000000     0.845500000000    -0.0420074  
C        C      0.093000000000     0.593900000000     0.345500000000    -0.0420074  
C        C      0.093000000000     0.406100000000     0.154500000000    -0.0420074  
C        C      0.593000000000     0.093900000000     0.345500000000    -0.0420074  
C        C      0.593000000000     0.906100000000     0.154500000000    -0.0420074  
C        C      0.913600000000     0.621200000000     0.764200000000    -0.0420074  
C        C      0.913600000000     0.378800000000     0.735800000000    -0.0420074  
C        C      0.413600000000     0.121200000000     0.764200000000    -0.0420074  
C        C      0.413600000000     0.878800000000     0.735800000000    -0.0420074  
C        C      0.086400000000     0.378800000000     0.235800000000    -0.0420074  
C        C      0.086400000000     0.621200000000     0.264200000000    -0.0420074  
C        C      0.586400000000     0.878800000000     0.235800000000    -0.0420074  
C        C      0.586400000000     0.121200000000     0.264200000000    -0.0420074  
C        C      0.814800000000     0.563400000000     0.807800000000    -0.0420074  
C        C      0.814800000000     0.436600000000     0.692200000000    -0.0420074  
C        C      0.314800000000     0.063400000000     0.807800000000    -0.0420074  
C        C      0.314800000000     0.936600000000     0.692200000000    -0.0420074  
C        C      0.185200000000     0.436600000000     0.192200000000    -0.0420074  
C        C      0.185200000000     0.563400000000     0.307800000000    -0.0420074  
C        C      0.685200000000     0.936600000000     0.192200000000    -0.0420074  
C        C      0.685200000000     0.063400000000     0.307800000000    -0.0420074  
C        C      0.753000000000     0.529300000000     0.717100000000    -0.0420074  
C        C      0.753000000000     0.470700000000     0.782900000000    -0.0420074  
C        C      0.253000000000     0.029300000000     0.717100000000    -0.0420074  
C        C      0.253000000000     0.970700000000     0.782900000000    -0.0420074  
C        C      0.247000000000     0.470700000000     0.282900000000    -0.0420074  
C        C      0.247000000000     0.529300000000     0.217100000000    -0.0420074  
C        C      0.747000000000     0.970700000000     0.282900000000    -0.0420074  
C        C      0.747000000000     0.029300000000     0.217100000000    -0.0420074  
C        C      0.729500000000     0.711700000000     0.756100000000    -0.0420074  
C        C      0.729500000000     0.288300000000     0.743900000000    -0.0420074  
C        C      0.229500000000     0.211700000000     0.756100000000    -0.0420074  
C        C      0.229500000000     0.788300000000     0.743900000000    -0.0420074  
C        C      0.270500000000     0.288300000000     0.243900000000    -0.0420074  
C        C      0.270500000000     0.711700000000     0.256100000000    -0.0420074  
C        C      0.770500000000     0.788300000000     0.243900000000    -0.0420074  
C        C      0.770500000000     0.211700000000     0.256100000000    -0.0420074  
N        N      0.977800000000     0.487100000000     0.629700000000    -0.116144   
N        N      0.977800000000     0.512900000000     0.870300000000    -0.116144   
N        N      0.477800000000     0.987100000000     0.629700000000    -0.116144   
N        N      0.477800000000     0.012900000000     0.870300000000    -0.116144   
N        N      0.022200000000     0.512900000000     0.370300000000    -0.116144   
N        N      0.022200000000     0.487100000000     0.129700000000    -0.116144   
N        N      0.522200000000     0.012900000000     0.370300000000    -0.116144   
N        N      0.522200000000     0.987100000000     0.129700000000    -0.116144   
N        N      0.824400000000     0.648500000000     0.756400000000    -0.116144   
N        N      0.824400000000     0.351500000000     0.743600000000    -0.116144   
N        N      0.324400000000     0.148500000000     0.756400000000    -0.116144   
N        N      0.324400000000     0.851500000000     0.743600000000    -0.116144   
N        N      0.175600000000     0.351500000000     0.243600000000    -0.116144   
N        N      0.175600000000     0.648500000000     0.256400000000    -0.116144   
N        N      0.675600000000     0.851500000000     0.243600000000    -0.116144   
N        N      0.675600000000     0.148500000000     0.256400000000    -0.116144   
N        N      0.812100000000     0.624500000000     0.722800000000    -0.116144   
N        N      0.812100000000     0.375500000000     0.777200000000    -0.116144   
N        N      0.312100000000     0.124500000000     0.722800000000    -0.116144   
N        N      0.312100000000     0.875500000000     0.777200000000    -0.116144   
N        N      0.187900000000     0.375500000000     0.277200000000    -0.116144   
N        N      0.187900000000     0.624500000000     0.222800000000    -0.116144   
N        N      0.687900000000     0.875500000000     0.277200000000    -0.116144   
N        N      0.687900000000     0.124500000000     0.222800000000    -0.116144   
O        O      0.047400000000     0.180300000000     0.869400000000    -1.87901    
O        O      0.047400000000     0.819700000000     0.630600000000    -1.87901    
O        O      0.547400000000     0.680300000000     0.869400000000    -1.87901    
O        O      0.547400000000     0.319700000000     0.630600000000    -1.87901    
O        O      0.952600000000     0.819700000000     0.130600000000    -1.87901    
O        O      0.952600000000     0.180300000000     0.369400000000    -1.87901    
O        O      0.452600000000     0.319700000000     0.130600000000    -1.87901    
O        O      0.452600000000     0.680300000000     0.369400000000    -1.87901    
O        O      0.824000000000     0.859500000000     0.006100000000    -1.87901    
O        O      0.824000000000     0.140500000000     0.493900000000    -1.87901    
O        O      0.324000000000     0.359500000000     0.006100000000    -1.87901    
O        O      0.324000000000     0.640500000000     0.493900000000    -1.87901    
O        O      0.176000000000     0.140500000000     0.993900000000    -1.87901    
O        O      0.176000000000     0.859500000000     0.506100000000    -1.87901    
O        O      0.676000000000     0.640500000000     0.993900000000    -1.87901    
O        O      0.676000000000     0.359500000000     0.506100000000    -1.87901    
O        O      0.738500000000     0.994700000000     0.942200000000    -1.87901    
O        O      0.738500000000     0.005300000000     0.557800000000    -1.87901    
O        O      0.238500000000     0.494700000000     0.942200000000    -1.87901    
O        O      0.238500000000     0.505300000000     0.557800000000    -1.87901    
O        O      0.261500000000     0.005300000000     0.057800000000    -1.87901    
O        O      0.261500000000     0.994700000000     0.442200000000    -1.87901    
O        O      0.761500000000     0.505300000000     0.057800000000    -1.87901    
O        O      0.761500000000     0.494700000000     0.442200000000    -1.87901    
O        O      0.164700000000     0.846600000000     0.982200000000    -1.87901    
O        O      0.164700000000     0.153400000000     0.517800000000    -1.87901    
O        O      0.664700000000     0.346600000000     0.982200000000    -1.87901    
O        O      0.664700000000     0.653400000000     0.517800000000    -1.87901    
O        O      0.835300000000     0.153400000000     0.017800000000    -1.87901    
O        O      0.835300000000     0.846600000000     0.482200000000    -1.87901    
O        O      0.335300000000     0.653400000000     0.017800000000    -1.87901    
O        O      0.335300000000     0.346600000000     0.482200000000    -1.87901    
O        O      0.053800000000     0.816800000000     0.876400000000    -1.87901    
O        O      0.053800000000     0.183200000000     0.623600000000    -1.87901    
O        O      0.553800000000     0.316800000000     0.876400000000    -1.87901    
O        O      0.553800000000     0.683200000000     0.623600000000    -1.87901    
O        O      0.946200000000     0.183200000000     0.123600000000    -1.87901    
O        O      0.946200000000     0.816800000000     0.376400000000    -1.87901    
O        O      0.446200000000     0.683200000000     0.123600000000    -1.87901    
O        O      0.446200000000     0.316800000000     0.376400000000    -1.87901    
O        O      0.994900000000     0.012400000000     0.841800000000    -1.87901    
O        O      0.994900000000     0.987600000000     0.658200000000    -1.87901    
O        O      0.494900000000     0.512400000000     0.841800000000    -1.87901    
O        O      0.494900000000     0.487600000000     0.658200000000    -1.87901    
O        O      0.005100000000     0.987600000000     0.158200000000    -1.87901    
O        O      0.005100000000     0.012400000000     0.341800000000    -1.87901    
O        O      0.505100000000     0.487600000000     0.158200000000    -1.87901    
O        O      0.505100000000     0.512400000000     0.341800000000    -1.87901    
O        O      0.858300000000     0.137700000000     0.866500000000    -1.87901    
O        O      0.858300000000     0.862300000000     0.633500000000    -1.87901    
O        O      0.358300000000     0.637700000000     0.866500000000    -1.87901    
O        O      0.358300000000     0.362300000000     0.633500000000    -1.87901    
O        O      0.141700000000     0.862300000000     0.133500000000    -1.87901    
O        O      0.141700000000     0.137700000000     0.366500000000    -1.87901    
O        O      0.641700000000     0.362300000000     0.133500000000    -1.87901    
O        O      0.641700000000     0.637700000000     0.366500000000    -1.87901    
O        O      0.667800000000     0.831900000000     0.929800000000    -1.87901    
O        O      0.667800000000     0.168100000000     0.570200000000    -1.87901    
O        O      0.167800000000     0.331900000000     0.929800000000    -1.87901    
O        O      0.167800000000     0.668100000000     0.570200000000    -1.87901    
O        O      0.332200000000     0.168100000000     0.070200000000    -1.87901    
O        O      0.332200000000     0.831900000000     0.429800000000    -1.87901    
O        O      0.832200000000     0.668100000000     0.070200000000    -1.87901    
O        O      0.832200000000     0.331900000000     0.429800000000    -1.87901    
O        O      0.959000000000     0.147100000000     0.755100000000    -1.87901    
O        O      0.959000000000     0.852900000000     0.744900000000    -1.87901    
O        O      0.459000000000     0.647100000000     0.755100000000    -1.87901    
O        O      0.459000000000     0.352900000000     0.744900000000    -1.87901    
O        O      0.041000000000     0.852900000000     0.244900000000    -1.87901    
O        O      0.041000000000     0.147100000000     0.255100000000    -1.87901    
O        O      0.541000000000     0.352900000000     0.244900000000    -1.87901    
O        O      0.541000000000     0.647100000000     0.255100000000    -1.87901    
O        O      0.160100000000     0.683700000000     0.924200000000    -1.87901    
O        O      0.160100000000     0.316300000000     0.575800000000    -1.87901    
O        O      0.660100000000     0.183700000000     0.924200000000    -1.87901    
O        O      0.660100000000     0.816300000000     0.575800000000    -1.87901    
O        O      0.839900000000     0.316300000000     0.075800000000    -1.87901    
O        O      0.839900000000     0.683700000000     0.424200000000    -1.87901    
O        O      0.339900000000     0.816300000000     0.075800000000    -1.87901    
O        O      0.339900000000     0.183700000000     0.424200000000    -1.87901    
O        O      0.836400000000     0.870000000000     0.873300000000    -1.87901    
O        O      0.836400000000     0.130000000000     0.626700000000    -1.87901    
O        O      0.336400000000     0.370000000000     0.873300000000    -1.87901    
O        O      0.336400000000     0.630000000000     0.626700000000    -1.87901    
O        O      0.163600000000     0.130000000000     0.126700000000    -1.87901    
O        O      0.163600000000     0.870000000000     0.373300000000    -1.87901    
O        O      0.663600000000     0.630000000000     0.126700000000    -1.87901    
O        O      0.663600000000     0.370000000000     0.373300000000    -1.87901    
O        O      0.009100000000     0.740000000000     0.992900000000    -1.87901    
O        O      0.009100000000     0.260000000000     0.507100000000    -1.87901    
O        O      0.509100000000     0.240000000000     0.992900000000    -1.87901    
O        O      0.509100000000     0.760000000000     0.507100000000    -1.87901    
O        O      0.990900000000     0.260000000000     0.007100000000    -1.87901    
O        O      0.990900000000     0.740000000000     0.492900000000    -1.87901    
O        O      0.490900000000     0.760000000000     0.007100000000    -1.87901    
O        O      0.490900000000     0.240000000000     0.492900000000    -1.87901    


