data_HIWLOO_original

_audit_creation_method RASPA-1.0
_audit_creation_date 2022-1-28
_audit_author_name 'Felipe Lopes de Oliveira <felipe.lopes.oliveira@ibm.com>'

_cell_length_a    10.5429
_cell_length_b    11.6345
_cell_length_c    11.7303
_cell_angle_alpha 110.116
_cell_angle_beta  100.445
_cell_angle_gamma 104.339
_cell_volume      1251.58

_symmetry_cell_setting          triclinic
_symmetry_space_group_name_Hall 'P 1'
_symmetry_space_group_name_H-M  'P 1'
_symmetry_Int_Tables_number     1

_symmetry_equiv_pos_as_xyz 'x,y,z'

loop_
_atom_site_label
_atom_site_type_symbol
_atom_site_fract_x
_atom_site_fract_y
_atom_site_fract_z
_atom_site_charge
In       In     0.046310000000     0.044620000000     0.794740000000     2.43952    
In       In     0.953690000000     0.955380000000     0.205260000000     2.43952    
In       In     0.500000000000     0.000000000000     0.000000000000     2.43952    
In       In     0.500000000000     0.000000000000     0.500000000000     2.43952    
P        P      0.193600000000     0.997400000000     0.049800000000     0.662047   
P        P      0.367600000000     0.097700000000     0.763500000000     0.662047   
P        P      0.845400000000     0.162100000000     0.633300000000     0.662047   
P        P      0.806400000000     0.002600000000     0.950200000000     0.662047   
P        P      0.632400000000     0.902300000000     0.236500000000     0.662047   
P        P      0.154600000000     0.837900000000     0.366700000000     0.662047   
H        H      0.875090000000     0.912820000000     0.501500000000     0.0233628  
H        H      0.977270000000     0.753250000000     0.767330000000     0.0233628  
H        H      0.761250000000     0.687970000000     0.323420000000     0.0233628  
H        H      0.870530000000     0.523160000000     0.597780000000     0.0233628  
H        H      0.605220000000     0.516320000000     0.222260000000     0.0233628  
H        H      0.855340000000     0.367090000000     0.439320000000     0.0233628  
H        H      0.485670000000     0.287020000000     0.057180000000     0.0233628  
H        H      0.739560000000     0.143610000000     0.261290000000     0.0233628  
H        H      0.628700000000     0.892900000000     0.691810000000     0.0233628  
H        H      0.365490000000     0.697430000000     0.306310000000     0.0233628  
H        H      0.629380000000     0.678070000000     0.697390000000     0.0233628  
H        H      0.365790000000     0.480150000000     0.303660000000     0.0233628  
H        H      0.124910000000     0.087180000000     0.498500000000     0.0233628  
H        H      0.238750000000     0.312030000000     0.676580000000     0.0233628  
H        H      0.394780000000     0.483680000000     0.777740000000     0.0233628  
H        H      0.144660000000     0.632910000000     0.560680000000     0.0233628  
H        H      0.514330000000     0.712980000000     0.942820000000     0.0233628  
H        H      0.260440000000     0.856390000000     0.738710000000     0.0233628  
H        H      0.371300000000     0.107100000000     0.308190000000     0.0233628  
H        H      0.634510000000     0.302570000000     0.693690000000     0.0233628  
H        H      0.370620000000     0.321930000000     0.302610000000     0.0233628  
H        H      0.634210000000     0.519850000000     0.696340000000     0.0233628  
H        H      0.022730000000     0.246750000000     0.232670000000     0.0233628  
H        H      0.129470000000     0.476840000000     0.402220000000     0.0233628  
C        C      0.872200000000     0.823200000000     0.521600000000     0.00210444 
C        C      0.927700000000     0.735400000000     0.665200000000     0.00210444 
C        C      0.810100000000     0.699500000000     0.423500000000     0.00210444 
C        C      0.868600000000     0.608800000000     0.572000000000     0.00210444 
C        C      0.806700000000     0.590300000000     0.445500000000     0.00210444 
C        C      0.739200000000     0.458000000000     0.345400000000     0.00210444 
C        C      0.635100000000     0.432900000000     0.235200000000     0.00210444 
C        C      0.773000000000     0.352900000000     0.353100000000     0.00210444 
C        C      0.570700000000     0.307700000000     0.144400000000     0.00210444 
C        C      0.707200000000     0.228600000000     0.256000000000     0.00210444 
C        C      0.568500000000     0.798500000000     0.604800000000     0.00210444 
C        C      0.425400000000     0.691600000000     0.394200000000     0.00210444 
C        C      0.570100000000     0.680800000000     0.607400000000     0.00210444 
C        C      0.425700000000     0.572700000000     0.392700000000     0.00210444 
C        C      0.499300000000     0.564500000000     0.500100000000     0.00210444 
C        C      0.127800000000     0.176800000000     0.478400000000     0.00210444 
C        C      0.072300000000     0.264600000000     0.334800000000     0.00210444 
C        C      0.189900000000     0.300500000000     0.576500000000     0.00210444 
C        C      0.131400000000     0.391200000000     0.428000000000     0.00210444 
C        C      0.193300000000     0.409700000000     0.554500000000     0.00210444 
C        C      0.260800000000     0.542000000000     0.654600000000     0.00210444 
C        C      0.364900000000     0.567100000000     0.764800000000     0.00210444 
C        C      0.227000000000     0.647100000000     0.646900000000     0.00210444 
C        C      0.429300000000     0.692300000000     0.855600000000     0.00210444 
C        C      0.292800000000     0.771400000000     0.744000000000     0.00210444 
C        C      0.431500000000     0.201500000000     0.395200000000     0.00210444 
C        C      0.574600000000     0.308400000000     0.605800000000     0.00210444 
C        C      0.429900000000     0.319200000000     0.392600000000     0.00210444 
C        C      0.574300000000     0.427300000000     0.607300000000     0.00210444 
C        C      0.500700000000     0.435500000000     0.499900000000     0.00210444 
N        N      0.930100000000     0.840800000000     0.641800000000    -0.327643   
N        N      0.604400000000     0.205800000000     0.154100000000    -0.327643   
N        N      0.495500000000     0.804500000000     0.499000000000    -0.327643   
N        N      0.069900000000     0.159200000000     0.358200000000    -0.327643   
N        N      0.395600000000     0.794200000000     0.845900000000    -0.327643   
N        N      0.504500000000     0.195500000000     0.501000000000    -0.327643   
O        O      0.121300000000     0.957700000000     0.911000000000    -0.516181   
O        O      0.107600000000     0.932100000000     0.115300000000    -0.516181   
O        O      0.327800000000     0.968500000000     0.067900000000    -0.516181   
O        O      0.227300000000     0.150200000000     0.120300000000    -0.516181   
O        O      0.211100000000     0.041000000000     0.706100000000    -0.516181   
O        O      0.410700000000     0.081200000000     0.884800000000    -0.516181   
O        O      0.435400000000     0.039900000000     0.666500000000    -0.516181   
O        O      0.414100000000     0.250300000000     0.800600000000    -0.516181   
O        O      0.959300000000     0.110700000000     0.664300000000    -0.516181   
O        O      0.705300000000     0.078500000000     0.619900000000    -0.516181   
O        O      0.845100000000     0.181200000000     0.506100000000    -0.516181   
O        O      0.877000000000     0.301200000000     0.736800000000    -0.516181   
O        O      0.878700000000     0.042300000000     0.089000000000    -0.516181   
O        O      0.892400000000     0.067900000000     0.884700000000    -0.516181   
O        O      0.672200000000     0.031500000000     0.932100000000    -0.516181   
O        O      0.772700000000     0.849800000000     0.879700000000    -0.516181   
O        O      0.788900000000     0.959000000000     0.293900000000    -0.516181   
O        O      0.589300000000     0.918800000000     0.115200000000    -0.516181   
O        O      0.564600000000     0.960100000000     0.333500000000    -0.516181   
O        O      0.585900000000     0.749700000000     0.199400000000    -0.516181   
O        O      0.040700000000     0.889300000000     0.335700000000    -0.516181   
O        O      0.294700000000     0.921500000000     0.380100000000    -0.516181   
O        O      0.154900000000     0.818800000000     0.493900000000    -0.516181   
O        O      0.123000000000     0.698800000000     0.263200000000    -0.516181   


