data_HIWXER01_original

_audit_creation_method RASPA-1.0
_audit_creation_date 2022-1-28
_audit_author_name 'Felipe Lopes de Oliveira <felipe.lopes.oliveira@ibm.com>'

_cell_length_a    8.5505
_cell_length_b    9.1091
_cell_length_c    14.2113
_cell_angle_alpha 108.617
_cell_angle_beta  90
_cell_angle_gamma 117.991
_cell_volume      911.288

_symmetry_cell_setting          triclinic
_symmetry_space_group_name_Hall 'P 1'
_symmetry_space_group_name_H-M  'P 1'
_symmetry_Int_Tables_number     1

_symmetry_equiv_pos_as_xyz 'x,y,z'

loop_
_atom_site_label
_atom_site_type_symbol
_atom_site_fract_x
_atom_site_fract_y
_atom_site_fract_z
_atom_site_charge
Zn       Zn     0.292640000000     0.445580000000     0.865630000000     0.407543   
Zn       Zn     0.409660000000     0.190280000000     0.971280000000     0.407543   
Zn       Zn     0.847060000000     0.554420000000     0.634370000000     0.407543   
Zn       Zn     0.219380000000     0.809720000000     0.528720000000     0.407543   
Zn       Zn     0.707360000000     0.554420000000     0.134370000000     0.407543   
Zn       Zn     0.590340000000     0.809720000000     0.028720000000     0.407543   
Zn       Zn     0.152940000000     0.445580000000     0.365630000000     0.407543   
Zn       Zn     0.780620000000     0.190280000000     0.471280000000     0.407543   
Zn       Zn     0.123270000000     0.000000000000     0.750000000000     0.407543   
Zn       Zn     0.876730000000     0.000000000000     0.250000000000     0.407543   
C        C      0.657500000000     0.630200000000     0.819000000000     0.203938   
C        C      0.505500000000     0.322600000000     0.724900000000     0.203938   
C        C      0.027300000000     0.369800000000     0.681000000000     0.203938   
C        C      0.182900000000     0.677400000000     0.775100000000     0.203938   
C        C      0.342500000000     0.369800000000     0.181000000000     0.203938   
C        C      0.494500000000     0.677400000000     0.275100000000     0.203938   
C        C      0.972700000000     0.630200000000     0.319000000000     0.203938   
C        C      0.817100000000     0.322600000000     0.224900000000     0.203938   
N        N      0.779300000000     0.685800000000     0.758500000000    -0.104851   
N        N      0.880700000000     0.863800000000     0.805100000000    -0.104851   
N        N      0.829300000000     0.918400000000     0.888500000000    -0.104851   
N        N      0.690800000000     0.776800000000     0.899900000000    -0.104851   
N        N      0.616700000000     0.334000000000     0.656100000000    -0.104851   
N        N      0.546500000000     0.167600000000     0.587700000000    -0.104851   
N        N      0.402400000000     0.063400000000     0.615500000000    -0.104851   
N        N      0.371600000000     0.156000000000     0.701400000000    -0.104851   
N        N      0.522000000000     0.466600000000     0.805900000000    -0.104851   
N        N      0.093500000000     0.314200000000     0.741500000000    -0.104851   
N        N      0.016900000000     0.136200000000     0.694900000000    -0.104851   
N        N      0.910900000000     0.081600000000     0.611500000000    -0.104851   
N        N      0.914000000000     0.223200000000     0.600100000000    -0.104851   
N        N      0.282700000000     0.666000000000     0.843900000000    -0.104851   
N        N      0.378900000000     0.832400000000     0.912300000000    -0.104851   
N        N      0.339000000000     0.936600000000     0.884500000000    -0.104851   
N        N      0.215600000000     0.844000000000     0.798600000000    -0.104851   
N        N      0.055400000000     0.533400000000     0.694100000000    -0.104851   
N        N      0.220700000000     0.314200000000     0.241500000000    -0.104851   
N        N      0.119300000000     0.136200000000     0.194900000000    -0.104851   
N        N      0.170700000000     0.081600000000     0.111500000000    -0.104851   
N        N      0.309200000000     0.223200000000     0.100100000000    -0.104851   
N        N      0.383300000000     0.666000000000     0.343900000000    -0.104851   
N        N      0.453500000000     0.832400000000     0.412300000000    -0.104851   
N        N      0.597600000000     0.936600000000     0.384500000000    -0.104851   
N        N      0.628400000000     0.844000000000     0.298600000000    -0.104851   
N        N      0.478000000000     0.533400000000     0.194100000000    -0.104851   
N        N      0.906500000000     0.685800000000     0.258500000000    -0.104851   
N        N      0.983100000000     0.863800000000     0.305100000000    -0.104851   
N        N      0.089100000000     0.918400000000     0.388500000000    -0.104851   
N        N      0.086000000000     0.776800000000     0.399900000000    -0.104851   
N        N      0.717300000000     0.334000000000     0.156100000000    -0.104851   
N        N      0.621100000000     0.167600000000     0.087700000000    -0.104851   
N        N      0.661000000000     0.063400000000     0.115500000000    -0.104851   
N        N      0.784400000000     0.156000000000     0.201400000000    -0.104851   
N        N      0.944600000000     0.466600000000     0.305900000000    -0.104851   
O        O      0.226100000000     0.207000000000     0.888400000000    -0.241538   
O        O      0.366100000000     0.599600000000     0.011200000000    -0.241538   
O        O      0.019100000000     0.793000000000     0.611600000000    -0.241538   
O        O      0.766500000000     0.400400000000     0.488800000000    -0.241538   
O        O      0.773900000000     0.793000000000     0.111600000000    -0.241538   
O        O      0.633900000000     0.400400000000     0.988800000000    -0.241538   
O        O      0.980900000000     0.207000000000     0.388400000000    -0.241538   
O        O      0.233500000000     0.599600000000     0.511200000000    -0.241538   


