data_HIWXER_original

_audit_creation_method RASPA-1.0
_audit_creation_date 2022-1-31
_audit_author_name 'Felipe Lopes de Oliveira <felipe.lopes.oliveira@ibm.com>'

_cell_length_a    8.4411
_cell_length_b    9.10659
_cell_length_c    14.2327
_cell_angle_alpha 71.7091
_cell_angle_beta  72.7502
_cell_angle_gamma 62.3894
_cell_volume      905.522

_symmetry_cell_setting          triclinic
_symmetry_space_group_name_Hall 'P 1'
_symmetry_space_group_name_H-M  'P 1'
_symmetry_Int_Tables_number     1

_symmetry_equiv_pos_as_xyz 'x,y,z'

loop_
_atom_site_label
_atom_site_type_symbol
_atom_site_fract_x
_atom_site_fract_y
_atom_site_fract_z
_atom_site_charge
Zn       Zn     0.844550000000     0.078660000000     0.366680000000     0.415108   
Zn       Zn     0.220030000000     0.719900000000     0.470740000000     0.415108   
Zn       Zn     0.289890000000     0.421340000000     0.133320000000     0.415108   
Zn       Zn     0.410670000000     0.780100000000     0.029260000000     0.415108   
Zn       Zn     0.155450000000     0.921340000000     0.633320000000     0.415108   
Zn       Zn     0.779970000000     0.280100000000     0.529260000000     0.415108   
Zn       Zn     0.710110000000     0.578660000000     0.866680000000     0.415108   
Zn       Zn     0.589330000000     0.219900000000     0.970740000000     0.415108   
Zn       Zn     0.122200000000     0.750000000000     0.250000000000     0.415108   
Zn       Zn     0.877800000000     0.250000000000     0.750000000000     0.415108   
H        H      0.954000000000     0.770000000000     0.422000000000     0.262286   
H        H      0.815000000000     0.006000000000     0.550000000000     0.262286   
H        H      0.146000000000     0.730000000000     0.078000000000     0.262286   
H        H      0.371000000000     0.494000000000     0.950000000000     0.262286   
H        H      0.046000000000     0.230000000000     0.578000000000     0.262286   
H        H      0.185000000000     0.994000000000     0.450000000000     0.262286   
H        H      0.854000000000     0.270000000000     0.922000000000     0.262286   
H        H      0.629000000000     0.506000000000     0.050000000000     0.262286   
C        C      0.658710000000     0.188550000000     0.180430000000     0.191444   
C        C      0.506430000000     0.400450000000     0.274690000000     0.191444   
C        C      0.027690000000     0.311450000000     0.319570000000     0.191444   
C        C      0.181570000000     0.099550000000     0.225310000000     0.191444   
C        C      0.341290000000     0.811450000000     0.819570000000     0.191444   
C        C      0.493570000000     0.599550000000     0.725310000000     0.191444   
C        C      0.972310000000     0.688550000000     0.680430000000     0.191444   
C        C      0.818430000000     0.900450000000     0.774690000000     0.191444   
N        N      0.522630000000     0.342890000000     0.192850000000    -0.110883   
N        N      0.776360000000     0.074290000000     0.241390000000    -0.110883   
N        N      0.878980000000     0.941680000000     0.194960000000    -0.110883   
N        N      0.828850000000     0.972060000000     0.110840000000    -0.110883   
N        N      0.691210000000     0.126630000000     0.098950000000    -0.110883   
N        N      0.615260000000     0.323140000000     0.344340000000    -0.110883   
N        N      0.545080000000     0.421360000000     0.412280000000    -0.110883   
N        N      0.402510000000     0.552920000000     0.384660000000    -0.110883   
N        N      0.372860000000     0.546910000000     0.297770000000    -0.110883   
N        N      0.058370000000     0.157110000000     0.307150000000    -0.110883   
N        N      0.092040000000     0.425710000000     0.258610000000    -0.110883   
N        N      0.015620000000     0.558320000000     0.305040000000    -0.110883   
N        N      0.911750000000     0.527940000000     0.389160000000    -0.110883   
N        N      0.916790000000     0.373370000000     0.401050000000    -0.110883   
N        N      0.282740000000     0.176860000000     0.155660000000    -0.110883   
N        N      0.378720000000     0.078640000000     0.087720000000    -0.110883   
N        N      0.340090000000     0.947080000000     0.115340000000    -0.110883   
N        N      0.217540000000     0.953090000000     0.202230000000    -0.110883   
N        N      0.477370000000     0.657110000000     0.807150000000    -0.110883   
N        N      0.223640000000     0.925710000000     0.758610000000    -0.110883   
N        N      0.121020000000     0.058320000000     0.805040000000    -0.110883   
N        N      0.171150000000     0.027940000000     0.889160000000    -0.110883   
N        N      0.308790000000     0.873370000000     0.901050000000    -0.110883   
N        N      0.384740000000     0.676860000000     0.655660000000    -0.110883   
N        N      0.454920000000     0.578640000000     0.587720000000    -0.110883   
N        N      0.597490000000     0.447080000000     0.615340000000    -0.110883   
N        N      0.627140000000     0.453090000000     0.702230000000    -0.110883   
N        N      0.941630000000     0.842890000000     0.692850000000    -0.110883   
N        N      0.907960000000     0.574290000000     0.741390000000    -0.110883   
N        N      0.984380000000     0.441680000000     0.694960000000    -0.110883   
N        N      0.088250000000     0.472060000000     0.610840000000    -0.110883   
N        N      0.083210000000     0.626630000000     0.598950000000    -0.110883   
N        N      0.717260000000     0.823140000000     0.844340000000    -0.110883   
N        N      0.621280000000     0.921360000000     0.912280000000    -0.110883   
N        N      0.659910000000     0.052920000000     0.884660000000    -0.110883   
N        N      0.782460000000     0.046910000000     0.797770000000    -0.110883   
O        O      0.017550000000     0.820210000000     0.387690000000    -0.473641   
O        O      0.761780000000     0.089090000000     0.511150000000    -0.473641   
O        O      0.225450000000     0.679790000000     0.112310000000    -0.473641   
O        O      0.362020000000     0.410910000000     0.988850000000    -0.473641   
O        O      0.982450000000     0.179790000000     0.612310000000    -0.473641   
O        O      0.238220000000     0.910910000000     0.488850000000    -0.473641   
O        O      0.774550000000     0.320210000000     0.887690000000    -0.473641   
O        O      0.637980000000     0.589090000000     0.011150000000    -0.473641   


