data_HUTTIA_original

_audit_creation_method RASPA-1.0
_audit_creation_date 2022-1-28
_audit_author_name 'Felipe Lopes de Oliveira <felipe.lopes.oliveira@ibm.com>'

_cell_length_a    15.833
_cell_length_b    16.086
_cell_length_c    22.67
_cell_angle_alpha 90
_cell_angle_beta  90
_cell_angle_gamma 90
_cell_volume      5773.81

_symmetry_cell_setting          triclinic
_symmetry_space_group_name_Hall 'P 1'
_symmetry_space_group_name_H-M  'P 1'
_symmetry_Int_Tables_number     1

_symmetry_equiv_pos_as_xyz 'x,y,z'

loop_
_atom_site_label
_atom_site_type_symbol
_atom_site_fract_x
_atom_site_fract_y
_atom_site_fract_z
_atom_site_charge
Zn       Zn     0.687670000000     0.561070000000     0.259230000000     0.475019   
Zn       Zn     0.834560000000     0.444720000000     0.252280000000     0.475019   
Zn       Zn     0.187670000000     0.438930000000     0.740770000000     0.475019   
Zn       Zn     0.334560000000     0.555280000000     0.747720000000     0.475019   
Zn       Zn     0.687670000000     0.438930000000     0.759230000000     0.475019   
Zn       Zn     0.834560000000     0.555280000000     0.752280000000     0.475019   
Zn       Zn     0.187670000000     0.561070000000     0.240770000000     0.475019   
Zn       Zn     0.334560000000     0.444720000000     0.247720000000     0.475019   
H        H      0.778200000000     0.718600000000     0.117700000000     0.0986744  
H        H      0.840800000000     0.801700000000     0.045700000000     0.0986744  
H        H      0.039000000000     0.642300000000     0.039000000000     0.0986744  
H        H      0.977900000000     0.563000000000     0.112100000000     0.0986744  
H        H      0.939300000000     0.657600000000     0.928200000000     0.0986744  
H        H      0.004300000000     0.570600000000     0.859000000000     0.0986744  
H        H      0.220200000000     0.704200000000     0.874400000000     0.0986744  
H        H      0.155300000000     0.788800000000     0.944600000000     0.0986744  
H        H      0.755300000000     0.284200000000     0.389400000000     0.0986744  
H        H      0.699700000000     0.194200000000     0.461100000000     0.0986744  
H        H      0.481900000000     0.329400000000     0.459600000000     0.0986744  
H        H      0.540100000000     0.419300000000     0.390400000000     0.0986744  
H        H      0.589800000000     0.325100000000     0.575400000000     0.0986744  
H        H      0.519200000000     0.412500000000     0.640100000000     0.0986744  
H        H      0.308000000000     0.276200000000     0.620400000000     0.0986744  
H        H      0.377700000000     0.187000000000     0.556400000000     0.0986744  
H        H      0.723000000000     0.733500000000     0.273400000000     0.0986744  
H        H      0.659500000000     0.862500000000     0.286400000000     0.0986744  
H        H      0.432800000000     0.749400000000     0.271900000000     0.0986744  
H        H      0.503400000000     0.621500000000     0.264900000000     0.0986744  
H        H      0.436700000000     0.905000000000     0.280900000000     0.0986744  
H        H      0.589500000000     0.106100000000     0.274600000000     0.0986744  
H        H      0.588900000000     0.261400000000     0.276600000000     0.0986744  
H        H      0.518500000000     0.386000000000     0.269000000000     0.0986744  
H        H      0.301600000000     0.267000000000     0.249400000000     0.0986744  
H        H      0.367100000000     0.140800000000     0.258800000000     0.0986744  
H        H      0.278200000000     0.281400000000     0.882300000000     0.0986744  
H        H      0.340800000000     0.198300000000     0.954300000000     0.0986744  
H        H      0.539000000000     0.357700000000     0.961000000000     0.0986744  
H        H      0.477900000000     0.437000000000     0.887900000000     0.0986744  
H        H      0.439300000000     0.342400000000     0.071800000000     0.0986744  
H        H      0.504300000000     0.429400000000     0.141000000000     0.0986744  
H        H      0.720200000000     0.295800000000     0.125600000000     0.0986744  
H        H      0.655300000000     0.211200000000     0.055400000000     0.0986744  
H        H      0.255300000000     0.715800000000     0.610600000000     0.0986744  
H        H      0.199700000000     0.805800000000     0.538900000000     0.0986744  
H        H      0.981900000000     0.670600000000     0.540400000000     0.0986744  
H        H      0.040100000000     0.580700000000     0.609600000000     0.0986744  
H        H      0.089800000000     0.674900000000     0.424600000000     0.0986744  
H        H      0.019200000000     0.587500000000     0.359900000000     0.0986744  
H        H      0.808000000000     0.723800000000     0.379600000000     0.0986744  
H        H      0.877700000000     0.813000000000     0.443600000000     0.0986744  
H        H      0.223000000000     0.266500000000     0.726600000000     0.0986744  
H        H      0.159500000000     0.137500000000     0.713600000000     0.0986744  
H        H      0.932800000000     0.250600000000     0.728100000000     0.0986744  
H        H      0.003400000000     0.378500000000     0.735100000000     0.0986744  
H        H      0.936700000000     0.095000000000     0.719100000000     0.0986744  
H        H      0.089500000000     0.893900000000     0.725400000000     0.0986744  
H        H      0.088900000000     0.738600000000     0.723400000000     0.0986744  
H        H      0.018500000000     0.614000000000     0.731000000000     0.0986744  
H        H      0.801600000000     0.733000000000     0.750600000000     0.0986744  
H        H      0.867100000000     0.859200000000     0.741200000000     0.0986744  
H        H      0.778200000000     0.281400000000     0.617700000000     0.0986744  
H        H      0.840800000000     0.198300000000     0.545700000000     0.0986744  
H        H      0.039000000000     0.357700000000     0.539000000000     0.0986744  
H        H      0.977900000000     0.437000000000     0.612100000000     0.0986744  
H        H      0.939300000000     0.342400000000     0.428200000000     0.0986744  
H        H      0.004300000000     0.429400000000     0.359000000000     0.0986744  
H        H      0.220200000000     0.295800000000     0.374400000000     0.0986744  
H        H      0.155300000000     0.211200000000     0.444600000000     0.0986744  
H        H      0.755300000000     0.715800000000     0.889400000000     0.0986744  
H        H      0.699700000000     0.805800000000     0.961100000000     0.0986744  
H        H      0.481900000000     0.670600000000     0.959600000000     0.0986744  
H        H      0.540100000000     0.580700000000     0.890400000000     0.0986744  
H        H      0.589800000000     0.674900000000     0.075400000000     0.0986744  
H        H      0.519200000000     0.587500000000     0.140100000000     0.0986744  
H        H      0.308000000000     0.723800000000     0.120400000000     0.0986744  
H        H      0.377700000000     0.813000000000     0.056400000000     0.0986744  
H        H      0.723000000000     0.266500000000     0.773400000000     0.0986744  
H        H      0.659500000000     0.137500000000     0.786400000000     0.0986744  
H        H      0.432800000000     0.250600000000     0.771900000000     0.0986744  
H        H      0.503400000000     0.378500000000     0.764900000000     0.0986744  
H        H      0.436700000000     0.095000000000     0.780900000000     0.0986744  
H        H      0.589500000000     0.893900000000     0.774600000000     0.0986744  
H        H      0.588900000000     0.738600000000     0.776600000000     0.0986744  
H        H      0.518500000000     0.614000000000     0.769000000000     0.0986744  
H        H      0.301600000000     0.733000000000     0.749400000000     0.0986744  
H        H      0.367100000000     0.859200000000     0.758800000000     0.0986744  
H        H      0.278200000000     0.718600000000     0.382300000000     0.0986744  
H        H      0.340800000000     0.801700000000     0.454300000000     0.0986744  
H        H      0.539000000000     0.642300000000     0.461000000000     0.0986744  
H        H      0.477900000000     0.563000000000     0.387900000000     0.0986744  
H        H      0.439300000000     0.657600000000     0.571800000000     0.0986744  
H        H      0.504300000000     0.570600000000     0.641000000000     0.0986744  
H        H      0.720200000000     0.704200000000     0.625600000000     0.0986744  
H        H      0.655300000000     0.788800000000     0.555400000000     0.0986744  
H        H      0.255300000000     0.284200000000     0.110600000000     0.0986744  
H        H      0.199700000000     0.194200000000     0.038900000000     0.0986744  
H        H      0.981900000000     0.329400000000     0.040400000000     0.0986744  
H        H      0.040100000000     0.419300000000     0.109600000000     0.0986744  
H        H      0.089800000000     0.325100000000     0.924600000000     0.0986744  
H        H      0.019200000000     0.412500000000     0.859900000000     0.0986744  
H        H      0.808000000000     0.276200000000     0.879600000000     0.0986744  
H        H      0.877700000000     0.187000000000     0.943600000000     0.0986744  
H        H      0.223000000000     0.733500000000     0.226600000000     0.0986744  
H        H      0.159500000000     0.862500000000     0.213600000000     0.0986744  
H        H      0.932800000000     0.749400000000     0.228100000000     0.0986744  
H        H      0.003400000000     0.621500000000     0.235100000000     0.0986744  
H        H      0.936700000000     0.905000000000     0.219100000000     0.0986744  
H        H      0.089500000000     0.106100000000     0.225400000000     0.0986744  
H        H      0.088900000000     0.261400000000     0.223400000000     0.0986744  
H        H      0.018500000000     0.386000000000     0.231000000000     0.0986744  
H        H      0.801600000000     0.267000000000     0.250600000000     0.0986744  
H        H      0.867100000000     0.140800000000     0.241200000000     0.0986744  
C        C      0.833800000000     0.579700000000     0.169700000000     0.097793   
C        C      0.870700000000     0.632300000000     0.123000000000     0.097793   
C        C      0.831700000000     0.703200000000     0.102100000000     0.097793   
C        C      0.868700000000     0.752800000000     0.058900000000     0.097793   
C        C      0.946300000000     0.730800000000     0.035200000000     0.097793   
C        C      0.986300000000     0.658600000000     0.055300000000     0.097793   
C        C      0.949500000000     0.611300000000     0.098400000000     0.097793   
C        C      0.994300000000     0.786400000000     0.990100000000     0.097793   
C        C      0.055200000000     0.841100000000     0.026100000000     0.097793   
C        C      0.935900000000     0.844800000000     0.954800000000     0.097793   
C        C      0.040400000000     0.732100000000     0.944400000000     0.097793   
C        C      0.996700000000     0.667000000000     0.917800000000     0.097793   
C        C      0.034900000000     0.615300000000     0.876200000000     0.097793   
C        C      0.117900000000     0.629700000000     0.860300000000     0.097793   
C        C      0.163200000000     0.694400000000     0.885500000000     0.097793   
C        C      0.124200000000     0.744700000000     0.927200000000     0.097793   
C        C      0.162000000000     0.573800000000     0.816300000000     0.097793   
C        C      0.692900000000     0.418500000000     0.338400000000     0.097793   
C        C      0.653800000000     0.360700000000     0.384500000000     0.097793   
C        C      0.700200000000     0.293600000000     0.404600000000     0.097793   
C        C      0.667100000000     0.239600000000     0.447000000000     0.097793   
C        C      0.584800000000     0.253300000000     0.468400000000     0.097793   
C        C      0.537900000000     0.320500000000     0.446100000000     0.097793   
C        C      0.572200000000     0.373800000000     0.404800000000     0.097793   
C        C      0.541600000000     0.195600000000     0.513600000000     0.097793   
C        C      0.483300000000     0.136500000000     0.476700000000     0.097793   
C        C      0.604400000000     0.142400000000     0.548900000000     0.097793   
C        C      0.490000000000     0.248400000000     0.557500000000     0.097793   
C        C      0.531900000000     0.315500000000     0.584000000000     0.097793   
C        C      0.490000000000     0.367400000000     0.622300000000     0.097793   
C        C      0.404900000000     0.354300000000     0.635200000000     0.097793   
C        C      0.365400000000     0.286800000000     0.610800000000     0.097793   
C        C      0.406600000000     0.233600000000     0.572500000000     0.097793   
C        C      0.358000000000     0.413600000000     0.674100000000     0.097793   
C        C      0.663100000000     0.737000000000     0.274100000000     0.097793   
C        C      0.625800000000     0.814400000000     0.280500000000     0.097793   
C        C      0.538400000000     0.820300000000     0.278200000000     0.097793   
C        C      0.492800000000     0.747800000000     0.272700000000     0.097793   
C        C      0.535300000000     0.671200000000     0.268300000000     0.097793   
C        C      0.496500000000     0.901700000000     0.279400000000     0.097793   
C        C      0.529500000000     0.107400000000     0.273600000000     0.097793   
C        C      0.485300000000     0.187500000000     0.268600000000     0.097793   
C        C      0.529400000000     0.261800000000     0.271300000000     0.097793   
C        C      0.487500000000     0.335600000000     0.266300000000     0.097793   
C        C      0.361000000000     0.265600000000     0.255200000000     0.097793   
C        C      0.399300000000     0.190600000000     0.260600000000     0.097793   
C        C      0.333800000000     0.420300000000     0.830300000000     0.097793   
C        C      0.370700000000     0.367700000000     0.877000000000     0.097793   
C        C      0.331700000000     0.296800000000     0.897900000000     0.097793   
C        C      0.368700000000     0.247200000000     0.941100000000     0.097793   
C        C      0.446300000000     0.269200000000     0.964800000000     0.097793   
C        C      0.486300000000     0.341400000000     0.944700000000     0.097793   
C        C      0.449500000000     0.388700000000     0.901600000000     0.097793   
C        C      0.494300000000     0.213600000000     0.009900000000     0.097793   
C        C      0.555200000000     0.158900000000     0.973900000000     0.097793   
C        C      0.435900000000     0.155200000000     0.045200000000     0.097793   
C        C      0.540400000000     0.267900000000     0.055600000000     0.097793   
C        C      0.496700000000     0.333000000000     0.082200000000     0.097793   
C        C      0.534900000000     0.384700000000     0.123800000000     0.097793   
C        C      0.617900000000     0.370300000000     0.139700000000     0.097793   
C        C      0.663200000000     0.305600000000     0.114500000000     0.097793   
C        C      0.624200000000     0.255300000000     0.072800000000     0.097793   
C        C      0.662000000000     0.426200000000     0.183700000000     0.097793   
C        C      0.192900000000     0.581500000000     0.661600000000     0.097793   
C        C      0.153800000000     0.639300000000     0.615500000000     0.097793   
C        C      0.200200000000     0.706400000000     0.595400000000     0.097793   
C        C      0.167100000000     0.760400000000     0.553000000000     0.097793   
C        C      0.084800000000     0.746700000000     0.531600000000     0.097793   
C        C      0.037900000000     0.679500000000     0.553900000000     0.097793   
C        C      0.072200000000     0.626200000000     0.595200000000     0.097793   
C        C      0.041600000000     0.804400000000     0.486400000000     0.097793   
C        C      0.983300000000     0.863500000000     0.523300000000     0.097793   
C        C      0.104400000000     0.857600000000     0.451100000000     0.097793   
C        C      0.990000000000     0.751600000000     0.442500000000     0.097793   
C        C      0.031900000000     0.684500000000     0.416000000000     0.097793   
C        C      0.990000000000     0.632600000000     0.377700000000     0.097793   
C        C      0.904900000000     0.645700000000     0.364800000000     0.097793   
C        C      0.865400000000     0.713200000000     0.389200000000     0.097793   
C        C      0.906600000000     0.766400000000     0.427500000000     0.097793   
C        C      0.858000000000     0.586400000000     0.325900000000     0.097793   
C        C      0.163100000000     0.263000000000     0.725900000000     0.097793   
C        C      0.125800000000     0.185600000000     0.719500000000     0.097793   
C        C      0.038400000000     0.179700000000     0.721800000000     0.097793   
C        C      0.992800000000     0.252200000000     0.727300000000     0.097793   
C        C      0.035300000000     0.328800000000     0.731700000000     0.097793   
C        C      0.996500000000     0.098300000000     0.720600000000     0.097793   
C        C      0.029500000000     0.892600000000     0.726400000000     0.097793   
C        C      0.985300000000     0.812500000000     0.731400000000     0.097793   
C        C      0.029400000000     0.738200000000     0.728700000000     0.097793   
C        C      0.987500000000     0.664400000000     0.733700000000     0.097793   
C        C      0.861000000000     0.734400000000     0.744800000000     0.097793   
C        C      0.899300000000     0.809400000000     0.739400000000     0.097793   
C        C      0.833800000000     0.420300000000     0.669700000000     0.097793   
C        C      0.870700000000     0.367700000000     0.623000000000     0.097793   
C        C      0.831700000000     0.296800000000     0.602100000000     0.097793   
C        C      0.868700000000     0.247200000000     0.558900000000     0.097793   
C        C      0.946300000000     0.269200000000     0.535200000000     0.097793   
C        C      0.986300000000     0.341400000000     0.555300000000     0.097793   
C        C      0.949500000000     0.388700000000     0.598400000000     0.097793   
C        C      0.994300000000     0.213600000000     0.490100000000     0.097793   
C        C      0.055200000000     0.158900000000     0.526100000000     0.097793   
C        C      0.935900000000     0.155200000000     0.454800000000     0.097793   
C        C      0.040400000000     0.267900000000     0.444400000000     0.097793   
C        C      0.996700000000     0.333000000000     0.417800000000     0.097793   
C        C      0.034900000000     0.384700000000     0.376200000000     0.097793   
C        C      0.117900000000     0.370300000000     0.360300000000     0.097793   
C        C      0.163200000000     0.305600000000     0.385500000000     0.097793   
C        C      0.124200000000     0.255300000000     0.427200000000     0.097793   
C        C      0.162000000000     0.426200000000     0.316300000000     0.097793   
C        C      0.692900000000     0.581500000000     0.838400000000     0.097793   
C        C      0.653800000000     0.639300000000     0.884500000000     0.097793   
C        C      0.700200000000     0.706400000000     0.904600000000     0.097793   
C        C      0.667100000000     0.760400000000     0.947000000000     0.097793   
C        C      0.584800000000     0.746700000000     0.968400000000     0.097793   
C        C      0.537900000000     0.679500000000     0.946100000000     0.097793   
C        C      0.572200000000     0.626200000000     0.904800000000     0.097793   
C        C      0.541600000000     0.804400000000     0.013600000000     0.097793   
C        C      0.483300000000     0.863500000000     0.976700000000     0.097793   
C        C      0.604400000000     0.857600000000     0.048900000000     0.097793   
C        C      0.490000000000     0.751600000000     0.057500000000     0.097793   
C        C      0.531900000000     0.684500000000     0.084000000000     0.097793   
C        C      0.490000000000     0.632600000000     0.122300000000     0.097793   
C        C      0.404900000000     0.645700000000     0.135200000000     0.097793   
C        C      0.365400000000     0.713200000000     0.110800000000     0.097793   
C        C      0.406600000000     0.766400000000     0.072500000000     0.097793   
C        C      0.358000000000     0.586400000000     0.174100000000     0.097793   
C        C      0.663100000000     0.263000000000     0.774100000000     0.097793   
C        C      0.625800000000     0.185600000000     0.780500000000     0.097793   
C        C      0.538400000000     0.179700000000     0.778200000000     0.097793   
C        C      0.492800000000     0.252200000000     0.772700000000     0.097793   
C        C      0.535300000000     0.328800000000     0.768300000000     0.097793   
C        C      0.496500000000     0.098300000000     0.779400000000     0.097793   
C        C      0.529500000000     0.892600000000     0.773600000000     0.097793   
C        C      0.485300000000     0.812500000000     0.768600000000     0.097793   
C        C      0.529400000000     0.738200000000     0.771300000000     0.097793   
C        C      0.487500000000     0.664400000000     0.766300000000     0.097793   
C        C      0.361000000000     0.734400000000     0.755200000000     0.097793   
C        C      0.399300000000     0.809400000000     0.760600000000     0.097793   
C        C      0.333800000000     0.579700000000     0.330300000000     0.097793   
C        C      0.370700000000     0.632300000000     0.377000000000     0.097793   
C        C      0.331700000000     0.703200000000     0.397900000000     0.097793   
C        C      0.368700000000     0.752800000000     0.441100000000     0.097793   
C        C      0.446300000000     0.730800000000     0.464800000000     0.097793   
C        C      0.486300000000     0.658600000000     0.444700000000     0.097793   
C        C      0.449500000000     0.611300000000     0.401600000000     0.097793   
C        C      0.494300000000     0.786400000000     0.509900000000     0.097793   
C        C      0.555200000000     0.841100000000     0.473900000000     0.097793   
C        C      0.435900000000     0.844800000000     0.545200000000     0.097793   
C        C      0.540400000000     0.732100000000     0.555600000000     0.097793   
C        C      0.496700000000     0.667000000000     0.582200000000     0.097793   
C        C      0.534900000000     0.615300000000     0.623800000000     0.097793   
C        C      0.617900000000     0.629700000000     0.639700000000     0.097793   
C        C      0.663200000000     0.694400000000     0.614500000000     0.097793   
C        C      0.624200000000     0.744700000000     0.572800000000     0.097793   
C        C      0.662000000000     0.573800000000     0.683700000000     0.097793   
C        C      0.192900000000     0.418500000000     0.161600000000     0.097793   
C        C      0.153800000000     0.360700000000     0.115500000000     0.097793   
C        C      0.200200000000     0.293600000000     0.095400000000     0.097793   
C        C      0.167100000000     0.239600000000     0.053000000000     0.097793   
C        C      0.084800000000     0.253300000000     0.031600000000     0.097793   
C        C      0.037900000000     0.320500000000     0.053900000000     0.097793   
C        C      0.072200000000     0.373800000000     0.095200000000     0.097793   
C        C      0.041600000000     0.195600000000     0.986400000000     0.097793   
C        C      0.983300000000     0.136500000000     0.023300000000     0.097793   
C        C      0.104400000000     0.142400000000     0.951100000000     0.097793   
C        C      0.990000000000     0.248400000000     0.942500000000     0.097793   
C        C      0.031900000000     0.315500000000     0.916000000000     0.097793   
C        C      0.990000000000     0.367400000000     0.877700000000     0.097793   
C        C      0.904900000000     0.354300000000     0.864800000000     0.097793   
C        C      0.865400000000     0.286800000000     0.889200000000     0.097793   
C        C      0.906600000000     0.233600000000     0.927500000000     0.097793   
C        C      0.858000000000     0.413600000000     0.825900000000     0.097793   
C        C      0.163100000000     0.737000000000     0.225900000000     0.097793   
C        C      0.125800000000     0.814400000000     0.219500000000     0.097793   
C        C      0.038400000000     0.820300000000     0.221800000000     0.097793   
C        C      0.992800000000     0.747800000000     0.227300000000     0.097793   
C        C      0.035300000000     0.671200000000     0.231700000000     0.097793   
C        C      0.996500000000     0.901700000000     0.220600000000     0.097793   
C        C      0.029500000000     0.107400000000     0.226400000000     0.097793   
C        C      0.985300000000     0.187500000000     0.231400000000     0.097793   
C        C      0.029400000000     0.261800000000     0.228700000000     0.097793   
C        C      0.987500000000     0.335600000000     0.233700000000     0.097793   
C        C      0.861000000000     0.265600000000     0.244800000000     0.097793   
C        C      0.899300000000     0.190600000000     0.239400000000     0.097793   
N        N      0.618500000000     0.667100000000     0.268800000000    -0.0933802  
N        N      0.540900000000     0.968200000000     0.278200000000    -0.0933802  
N        N      0.487400000000     0.038800000000     0.276600000000    -0.0933802  
N        N      0.403600000000     0.338700000000     0.257700000000    -0.0933802  
N        N      0.118500000000     0.332900000000     0.731200000000    -0.0933802  
N        N      0.040900000000     0.031800000000     0.721800000000    -0.0933802  
N        N      0.987400000000     0.961200000000     0.723400000000    -0.0933802  
N        N      0.903600000000     0.661300000000     0.742300000000    -0.0933802  
N        N      0.618500000000     0.332900000000     0.768800000000    -0.0933802  
N        N      0.540900000000     0.031800000000     0.778200000000    -0.0933802  
N        N      0.487400000000     0.961200000000     0.776600000000    -0.0933802  
N        N      0.403600000000     0.661300000000     0.757700000000    -0.0933802  
N        N      0.118500000000     0.667100000000     0.231200000000    -0.0933802  
N        N      0.040900000000     0.968200000000     0.221800000000    -0.0933802  
N        N      0.987400000000     0.038800000000     0.223400000000    -0.0933802  
N        N      0.903600000000     0.338700000000     0.242300000000    -0.0933802  
O        O      0.762900000000     0.604100000000     0.191000000000    -0.293355   
O        O      0.872900000000     0.516700000000     0.185000000000    -0.293355   
O        O      0.233400000000     0.595700000000     0.799200000000    -0.293355   
O        O      0.123700000000     0.508500000000     0.801200000000    -0.293355   
O        O      0.766500000000     0.401700000000     0.322600000000    -0.293355   
O        O      0.647700000000     0.478800000000     0.321400000000    -0.293355   
O        O      0.396900000000     0.476600000000     0.693500000000    -0.293355   
O        O      0.282300000000     0.397300000000     0.685200000000    -0.293355   
O        O      0.262900000000     0.395900000000     0.809000000000    -0.293355   
O        O      0.372900000000     0.483300000000     0.815000000000    -0.293355   
O        O      0.733400000000     0.404300000000     0.200800000000    -0.293355   
O        O      0.623700000000     0.491500000000     0.198800000000    -0.293355   
O        O      0.266500000000     0.598300000000     0.677400000000    -0.293355   
O        O      0.147700000000     0.521200000000     0.678600000000    -0.293355   
O        O      0.896900000000     0.523400000000     0.306500000000    -0.293355   
O        O      0.782300000000     0.602700000000     0.314800000000    -0.293355   
O        O      0.762900000000     0.395900000000     0.691000000000    -0.293355   
O        O      0.872900000000     0.483300000000     0.685000000000    -0.293355   
O        O      0.233400000000     0.404300000000     0.299200000000    -0.293355   
O        O      0.123700000000     0.491500000000     0.301200000000    -0.293355   
O        O      0.766500000000     0.598300000000     0.822600000000    -0.293355   
O        O      0.647700000000     0.521200000000     0.821400000000    -0.293355   
O        O      0.396900000000     0.523400000000     0.193500000000    -0.293355   
O        O      0.282300000000     0.602700000000     0.185200000000    -0.293355   
O        O      0.262900000000     0.604100000000     0.309000000000    -0.293355   
O        O      0.372900000000     0.516700000000     0.315000000000    -0.293355   
O        O      0.733400000000     0.595700000000     0.700800000000    -0.293355   
O        O      0.623700000000     0.508500000000     0.698800000000    -0.293355   
O        O      0.266500000000     0.401700000000     0.177400000000    -0.293355   
O        O      0.147700000000     0.478800000000     0.178600000000    -0.293355   
O        O      0.896900000000     0.476600000000     0.806500000000    -0.293355   
O        O      0.782300000000     0.397300000000     0.814800000000    -0.293355   
F        F      0.014500000000     0.878100000000     0.071100000000    -0.441141   
F        F      0.116500000000     0.795500000000     0.051070000000    -0.441141   
F        F      0.090800000000     0.901600000000     0.995400000000    -0.441141   
F        F      0.976800000000     0.880700000000     0.909770000000    -0.441141   
F        F      0.901800000000     0.905700000000     0.986600000000    -0.441141   
F        F      0.870600000000     0.802400000000     0.930500000000    -0.441141   
F        F      0.421000000000     0.176700000000     0.450800000000    -0.441141   
F        F      0.528100000000     0.099700000000     0.433200000000    -0.441141   
F        F      0.450500000000     0.074500000000     0.509300000000    -0.441141   
F        F      0.640500000000     0.082000000000     0.516900000000    -0.441141   
F        F      0.565200000000     0.102800000000     0.594070000000    -0.441141   
F        F      0.665400000000     0.187500000000     0.572670000000    -0.441141   
F        F      0.514500000000     0.121900000000     0.928900000000    -0.441141   
F        F      0.616500000000     0.204500000000     0.948930000000    -0.441141   
F        F      0.590800000000     0.098400000000     0.004600000000    -0.441141   
F        F      0.476800000000     0.119300000000     0.090230000000    -0.441141   
F        F      0.401800000000     0.094300000000     0.013400000000    -0.441141   
F        F      0.370600000000     0.197600000000     0.069500000000    -0.441141   
F        F      0.921000000000     0.823300000000     0.549200000000    -0.441141   
F        F      0.028100000000     0.900300000000     0.566800000000    -0.441141   
F        F      0.950500000000     0.925500000000     0.490700000000    -0.441141   
F        F      0.140500000000     0.918000000000     0.483100000000    -0.441141   
F        F      0.065200000000     0.897200000000     0.405930000000    -0.441141   
F        F      0.165400000000     0.812500000000     0.427330000000    -0.441141   
F        F      0.014500000000     0.121900000000     0.571100000000    -0.441141   
F        F      0.116500000000     0.204500000000     0.551070000000    -0.441141   
F        F      0.090800000000     0.098400000000     0.495400000000    -0.441141   
F        F      0.976800000000     0.119300000000     0.409770000000    -0.441141   
F        F      0.901800000000     0.094300000000     0.486600000000    -0.441141   
F        F      0.870600000000     0.197600000000     0.430500000000    -0.441141   
F        F      0.421000000000     0.823300000000     0.950800000000    -0.441141   
F        F      0.528100000000     0.900300000000     0.933200000000    -0.441141   
F        F      0.450500000000     0.925500000000     0.009300000000    -0.441141   
F        F      0.640500000000     0.918000000000     0.016900000000    -0.441141   
F        F      0.565200000000     0.897200000000     0.094070000000    -0.441141   
F        F      0.665400000000     0.812500000000     0.072670000000    -0.441141   
F        F      0.514500000000     0.878100000000     0.428900000000    -0.441141   
F        F      0.616500000000     0.795500000000     0.448930000000    -0.441141   
F        F      0.590800000000     0.901600000000     0.504600000000    -0.441141   
F        F      0.476800000000     0.880700000000     0.590230000000    -0.441141   
F        F      0.401800000000     0.905700000000     0.513400000000    -0.441141   
F        F      0.370600000000     0.802400000000     0.569500000000    -0.441141   
F        F      0.921000000000     0.176700000000     0.049200000000    -0.441141   
F        F      0.028100000000     0.099700000000     0.066800000000    -0.441141   
F        F      0.950500000000     0.074500000000     0.990700000000    -0.441141   
F        F      0.140500000000     0.082000000000     0.983100000000    -0.441141   
F        F      0.065200000000     0.102800000000     0.905930000000    -0.441141   
F        F      0.165400000000     0.187500000000     0.927330000000    -0.441141   


