data_HUTZAX01_original

_audit_creation_method RASPA-1.0
_audit_creation_date 2022-1-29
_audit_author_name 'Felipe Lopes de Oliveira <felipe.lopes.oliveira@ibm.com>'

_cell_length_a    13.298
_cell_length_b    13.298
_cell_length_c    29.544
_cell_angle_alpha 90
_cell_angle_beta  90
_cell_angle_gamma 120
_cell_volume      4524.52

_symmetry_cell_setting          triclinic
_symmetry_space_group_name_Hall 'P 1'
_symmetry_space_group_name_H-M  'P 1'
_symmetry_Int_Tables_number     1

_symmetry_equiv_pos_as_xyz 'x,y,z'

loop_
_atom_site_label
_atom_site_type_symbol
_atom_site_fract_x
_atom_site_fract_y
_atom_site_fract_z
_atom_site_charge
Zn       Zn     0.465530000000     0.465370000000     0.106520000000     0.511182   
Zn       Zn     0.534630000000     0.000160000000     0.773187000000     0.511182   
Zn       Zn     0.999840000000     0.534470000000     0.439853000000     0.511182   
Zn       Zn     0.465370000000     0.465530000000     0.893480000000     0.511182   
Zn       Zn     0.000160000000     0.534630000000     0.226813000000     0.511182   
Zn       Zn     0.534470000000     0.999840000000     0.560147000000     0.511182   
Zn       Zn     0.281760000000     0.449950000000     0.184550000000     0.511182   
Zn       Zn     0.550050000000     0.831810000000     0.851217000000     0.511182   
Zn       Zn     0.168190000000     0.718240000000     0.517883000000     0.511182   
Zn       Zn     0.449950000000     0.281760000000     0.815450000000     0.511182   
Zn       Zn     0.831810000000     0.550050000000     0.148783000000     0.511182   
Zn       Zn     0.718240000000     0.168190000000     0.482117000000     0.511182   
H        H      0.736000000000     0.753700000000     0.165700000000     0.0754112  
H        H      0.246300000000     0.982300000000     0.832367000000     0.0754112  
H        H      0.017700000000     0.264000000000     0.499033000000     0.0754112  
H        H      0.753700000000     0.736000000000     0.834300000000     0.0754112  
H        H      0.982300000000     0.246300000000     0.167633000000     0.0754112  
H        H      0.264000000000     0.017700000000     0.500967000000     0.0754112  
H        H      0.880600000000     0.916400000000     0.199100000000     0.0754112  
H        H      0.083600000000     0.964200000000     0.865767000000     0.0754112  
H        H      0.035800000000     0.119400000000     0.532433000000     0.0754112  
H        H      0.916400000000     0.880600000000     0.800900000000     0.0754112  
H        H      0.964200000000     0.083600000000     0.134233000000     0.0754112  
H        H      0.119400000000     0.035800000000     0.467567000000     0.0754112  
H        H      0.649400000000     0.953700000000     0.272000000000     0.0754112  
H        H      0.046300000000     0.695700000000     0.938667000000     0.0754112  
H        H      0.304300000000     0.350600000000     0.605333000000     0.0754112  
H        H      0.953700000000     0.649400000000     0.728000000000     0.0754112  
H        H      0.695700000000     0.046300000000     0.061333000000     0.0754112  
H        H      0.350600000000     0.304300000000     0.394667000000     0.0754112  
H        H      0.501200000000     0.790200000000     0.238300000000     0.0754112  
H        H      0.209800000000     0.711000000000     0.904967000000     0.0754112  
H        H      0.289000000000     0.498800000000     0.571633000000     0.0754112  
H        H      0.790200000000     0.501200000000     0.761700000000     0.0754112  
H        H      0.711000000000     0.209800000000     0.095033000000     0.0754112  
H        H      0.498800000000     0.289000000000     0.428367000000     0.0754112  
H        H      0.837500000000     0.989900000000     0.339800000000     0.0754112  
H        H      0.010100000000     0.847600000000     0.006467000000     0.0754112  
H        H      0.152400000000     0.162500000000     0.673133000000     0.0754112  
H        H      0.989900000000     0.837500000000     0.660200000000     0.0754112  
H        H      0.847600000000     0.010100000000     0.993533000000     0.0754112  
H        H      0.162500000000     0.152400000000     0.326867000000     0.0754112  
H        H      0.830800000000     0.101700000000     0.399800000000     0.0754112  
H        H      0.898300000000     0.729100000000     0.066467000000     0.0754112  
H        H      0.270900000000     0.169200000000     0.733133000000     0.0754112  
H        H      0.101700000000     0.830800000000     0.600200000000     0.0754112  
H        H      0.729100000000     0.898300000000     0.933533000000     0.0754112  
H        H      0.169200000000     0.270900000000     0.266867000000     0.0754112  
H        H      0.857500000000     0.343200000000     0.314300000000     0.0754112  
H        H      0.656800000000     0.514300000000     0.980967000000     0.0754112  
H        H      0.485700000000     0.142500000000     0.647633000000     0.0754112  
H        H      0.343200000000     0.857500000000     0.685700000000     0.0754112  
H        H      0.514300000000     0.656800000000     0.019033000000     0.0754112  
H        H      0.142500000000     0.485700000000     0.352367000000     0.0754112  
H        H      0.856600000000     0.231800000000     0.254700000000     0.0754112  
H        H      0.768200000000     0.624800000000     0.921367000000     0.0754112  
H        H      0.375200000000     0.143400000000     0.588033000000     0.0754112  
H        H      0.231800000000     0.856600000000     0.745300000000     0.0754112  
H        H      0.624800000000     0.768200000000     0.078633000000     0.0754112  
H        H      0.143400000000     0.375200000000     0.411967000000     0.0754112  
H        H      0.056200000000     0.466500000000     0.097000000000     0.0754112  
H        H      0.533500000000     0.589700000000     0.763667000000     0.0754112  
H        H      0.410300000000     0.943800000000     0.430333000000     0.0754112  
H        H      0.466500000000     0.056200000000     0.903000000000     0.0754112  
H        H      0.589700000000     0.533500000000     0.236333000000     0.0754112  
H        H      0.943800000000     0.410300000000     0.569667000000     0.0754112  
H        H      0.925600000000     0.466200000000     0.044500000000     0.0754112  
H        H      0.533800000000     0.459400000000     0.711167000000     0.0754112  
H        H      0.540600000000     0.074400000000     0.377833000000     0.0754112  
H        H      0.466200000000     0.925600000000     0.955500000000     0.0754112  
H        H      0.459400000000     0.533800000000     0.288833000000     0.0754112  
H        H      0.074400000000     0.540600000000     0.622167000000     0.0754112  
H        H      0.150700000000     0.513300000000     0.946900000000     0.0754112  
H        H      0.486700000000     0.637400000000     0.613567000000     0.0754112  
H        H      0.362600000000     0.849300000000     0.280233000000     0.0754112  
H        H      0.513300000000     0.150700000000     0.053100000000     0.0754112  
H        H      0.637400000000     0.486700000000     0.386433000000     0.0754112  
H        H      0.849300000000     0.362600000000     0.719767000000     0.0754112  
H        H      0.280900000000     0.516000000000     0.998700000000     0.0754112  
H        H      0.484000000000     0.764900000000     0.665367000000     0.0754112  
H        H      0.235100000000     0.719100000000     0.332033000000     0.0754112  
H        H      0.516000000000     0.280900000000     0.001300000000     0.0754112  
H        H      0.764900000000     0.484000000000     0.334633000000     0.0754112  
H        H      0.719100000000     0.235100000000     0.667967000000     0.0754112  
H        H      0.904500000000     0.274100000000     0.973800000000     0.0754112  
H        H      0.725900000000     0.630400000000     0.640467000000     0.0754112  
H        H      0.369600000000     0.095500000000     0.307133000000     0.0754112  
H        H      0.274100000000     0.904500000000     0.026200000000     0.0754112  
H        H      0.630400000000     0.725900000000     0.359533000000     0.0754112  
H        H      0.095500000000     0.369600000000     0.692867000000     0.0754112  
H        H      0.786200000000     0.109500000000     0.932300000000     0.0754112  
H        H      0.890500000000     0.676700000000     0.598967000000     0.0754112  
H        H      0.323300000000     0.213800000000     0.265633000000     0.0754112  
H        H      0.109500000000     0.786200000000     0.067700000000     0.0754112  
H        H      0.676700000000     0.890500000000     0.401033000000     0.0754112  
H        H      0.213800000000     0.323300000000     0.734367000000     0.0754112  
H        H      0.748500000000     0.308900000000     0.839100000000     0.0754112  
H        H      0.691100000000     0.439600000000     0.505767000000     0.0754112  
H        H      0.560400000000     0.251500000000     0.172433000000     0.0754112  
H        H      0.308900000000     0.748500000000     0.160900000000     0.0754112  
H        H      0.439600000000     0.691100000000     0.494233000000     0.0754112  
H        H      0.251500000000     0.560400000000     0.827567000000     0.0754112  
H        H      0.855700000000     0.466400000000     0.883600000000     0.0754112  
H        H      0.533600000000     0.389300000000     0.550267000000     0.0754112  
H        H      0.610700000000     0.144300000000     0.216933000000     0.0754112  
H        H      0.466400000000     0.855700000000     0.116400000000     0.0754112  
H        H      0.389300000000     0.533600000000     0.449733000000     0.0754112  
H        H      0.144300000000     0.610700000000     0.783067000000     0.0754112  
C        C      0.509800000000     0.646100000000     0.178100000000     0.0392604  
C        C      0.353900000000     0.863700000000     0.844767000000     0.0392604  
C        C      0.136300000000     0.490200000000     0.511433000000     0.0392604  
C        C      0.646100000000     0.509800000000     0.821900000000     0.0392604  
C        C      0.863700000000     0.353900000000     0.155233000000     0.0392604  
C        C      0.490200000000     0.136300000000     0.488567000000     0.0392604  
C        C      0.601000000000     0.753100000000     0.198300000000     0.0392604  
C        C      0.246900000000     0.847900000000     0.864967000000     0.0392604  
C        C      0.152100000000     0.399000000000     0.531633000000     0.0392604  
C        C      0.753100000000     0.601000000000     0.801700000000     0.0392604  
C        C      0.847900000000     0.246900000000     0.135033000000     0.0392604  
C        C      0.399000000000     0.152100000000     0.468367000000     0.0392604  
C        C      0.717600000000     0.793600000000     0.186900000000     0.0392604  
C        C      0.206400000000     0.924000000000     0.853567000000     0.0392604  
C        C      0.076000000000     0.282400000000     0.520233000000     0.0392604  
C        C      0.793600000000     0.717600000000     0.813100000000     0.0392604  
C        C      0.924000000000     0.206400000000     0.146433000000     0.0392604  
C        C      0.282400000000     0.076000000000     0.479767000000     0.0392604  
C        C      0.803700000000     0.890800000000     0.206900000000     0.0392604  
C        C      0.109200000000     0.912900000000     0.873567000000     0.0392604  
C        C      0.087100000000     0.196300000000     0.540233000000     0.0392604  
C        C      0.890800000000     0.803700000000     0.793100000000     0.0392604  
C        C      0.912900000000     0.109200000000     0.126433000000     0.0392604  
C        C      0.196300000000     0.087100000000     0.459767000000     0.0392604  
C        C      0.779300000000     0.951800000000     0.238300000000     0.0392604  
C        C      0.048200000000     0.827500000000     0.904967000000     0.0392604  
C        C      0.172500000000     0.220700000000     0.571633000000     0.0392604  
C        C      0.951800000000     0.779300000000     0.761700000000     0.0392604  
C        C      0.827500000000     0.048200000000     0.095033000000     0.0392604  
C        C      0.220700000000     0.172500000000     0.428367000000     0.0392604  
C        C      0.666400000000     0.913600000000     0.250400000000     0.0392604  
C        C      0.086400000000     0.752800000000     0.917067000000     0.0392604  
C        C      0.247200000000     0.333600000000     0.583733000000     0.0392604  
C        C      0.913600000000     0.666400000000     0.749600000000     0.0392604  
C        C      0.752800000000     0.086400000000     0.082933000000     0.0392604  
C        C      0.333600000000     0.247200000000     0.416267000000     0.0392604  
C        C      0.577700000000     0.815200000000     0.230300000000     0.0392604  
C        C      0.184800000000     0.762500000000     0.896967000000     0.0392604  
C        C      0.237500000000     0.422300000000     0.563633000000     0.0392604  
C        C      0.815200000000     0.577700000000     0.769700000000     0.0392604  
C        C      0.762500000000     0.184800000000     0.103033000000     0.0392604  
C        C      0.422300000000     0.237500000000     0.436367000000     0.0392604  
C        C      0.852100000000     0.107200000000     0.291400000000     0.0392604  
C        C      0.892800000000     0.744900000000     0.958067000000     0.0392604  
C        C      0.255100000000     0.147900000000     0.624733000000     0.0392604  
C        C      0.107200000000     0.852100000000     0.708600000000     0.0392604  
C        C      0.744900000000     0.892800000000     0.041933000000     0.0392604  
C        C      0.147900000000     0.255100000000     0.375267000000     0.0392604  
C        C      0.841600000000     0.060900000000     0.334800000000     0.0392604  
C        C      0.939100000000     0.780700000000     0.001467000000     0.0392604  
C        C      0.219300000000     0.158400000000     0.668133000000     0.0392604  
C        C      0.060900000000     0.841600000000     0.665200000000     0.0392604  
C        C      0.780700000000     0.939100000000     0.998533000000     0.0392604  
C        C      0.158400000000     0.219300000000     0.331867000000     0.0392604  
C        C      0.837800000000     0.128700000000     0.370300000000     0.0392604  
C        C      0.871300000000     0.709100000000     0.036967000000     0.0392604  
C        C      0.290900000000     0.162200000000     0.703633000000     0.0392604  
C        C      0.128700000000     0.837800000000     0.629700000000     0.0392604  
C        C      0.709100000000     0.871300000000     0.963033000000     0.0392604  
C        C      0.162200000000     0.290900000000     0.296367000000     0.0392604  
C        C      0.843900000000     0.232800000000     0.363100000000     0.0392604  
C        C      0.767200000000     0.611100000000     0.029767000000     0.0392604  
C        C      0.388900000000     0.156100000000     0.696433000000     0.0392604  
C        C      0.232800000000     0.843900000000     0.636900000000     0.0392604  
C        C      0.611100000000     0.767200000000     0.970233000000     0.0392604  
C        C      0.156100000000     0.388900000000     0.303567000000     0.0392604  
C        C      0.852600000000     0.272000000000     0.319700000000     0.0392604  
C        C      0.728000000000     0.580600000000     0.986367000000     0.0392604  
C        C      0.419400000000     0.147400000000     0.653033000000     0.0392604  
C        C      0.272000000000     0.852600000000     0.680300000000     0.0392604  
C        C      0.580600000000     0.728000000000     0.013633000000     0.0392604  
C        C      0.147400000000     0.419400000000     0.346967000000     0.0392604  
C        C      0.854100000000     0.206200000000     0.284200000000     0.0392604  
C        C      0.793800000000     0.647900000000     0.950867000000     0.0392604  
C        C      0.352100000000     0.145900000000     0.617533000000     0.0392604  
C        C      0.206200000000     0.854100000000     0.715800000000     0.0392604  
C        C      0.647900000000     0.793800000000     0.049133000000     0.0392604  
C        C      0.145900000000     0.352100000000     0.382467000000     0.0392604  
C        C      0.864800000000     0.312500000000     0.402100000000     0.0392604  
C        C      0.687500000000     0.552300000000     0.068767000000     0.0392604  
C        C      0.447700000000     0.135200000000     0.735433000000     0.0392604  
C        C      0.312500000000     0.864800000000     0.597900000000     0.0392604  
C        C      0.552300000000     0.687500000000     0.931233000000     0.0392604  
C        C      0.135200000000     0.447700000000     0.264567000000     0.0392604  
C        C      0.253900000000     0.472400000000     0.087900000000     0.0392604  
C        C      0.527600000000     0.781500000000     0.754567000000     0.0392604  
C        C      0.218500000000     0.746100000000     0.421233000000     0.0392604  
C        C      0.472400000000     0.253900000000     0.912100000000     0.0392604  
C        C      0.781500000000     0.527600000000     0.245433000000     0.0392604  
C        C      0.746100000000     0.218500000000     0.578767000000     0.0392604  
C        C      0.176400000000     0.482700000000     0.053400000000     0.0392604  
C        C      0.517300000000     0.693700000000     0.720067000000     0.0392604  
C        C      0.306300000000     0.823600000000     0.386733000000     0.0392604  
C        C      0.482700000000     0.176400000000     0.946600000000     0.0392604  
C        C      0.693700000000     0.517300000000     0.279933000000     0.0392604  
C        C      0.823600000000     0.306300000000     0.613267000000     0.0392604  
C        C      0.074300000000     0.473100000000     0.066400000000     0.0392604  
C        C      0.526900000000     0.601200000000     0.733067000000     0.0392604  
C        C      0.398800000000     0.925700000000     0.399733000000     0.0392604  
C        C      0.473100000000     0.074300000000     0.933600000000     0.0392604  
C        C      0.601200000000     0.526900000000     0.266933000000     0.0392604  
C        C      0.925700000000     0.398800000000     0.600267000000     0.0392604  
C        C      0.995500000000     0.473000000000     0.035200000000     0.0392604  
C        C      0.527000000000     0.522500000000     0.701867000000     0.0392604  
C        C      0.477500000000     0.004500000000     0.368533000000     0.0392604  
C        C      0.473000000000     0.995500000000     0.964800000000     0.0392604  
C        C      0.522500000000     0.527000000000     0.298133000000     0.0392604  
C        C      0.004500000000     0.477500000000     0.631467000000     0.0392604  
C        C      0.024400000000     0.483100000000     0.991200000000     0.0392604  
C        C      0.516900000000     0.541300000000     0.657867000000     0.0392604  
C        C      0.458700000000     0.975600000000     0.324533000000     0.0392604  
C        C      0.483100000000     0.024400000000     0.008800000000     0.0392604  
C        C      0.541300000000     0.516900000000     0.342133000000     0.0392604  
C        C      0.975600000000     0.458700000000     0.675467000000     0.0392604  
C        C      0.131100000000     0.501500000000     0.977400000000     0.0392604  
C        C      0.498500000000     0.629600000000     0.644067000000     0.0392604  
C        C      0.370400000000     0.868900000000     0.310733000000     0.0392604  
C        C      0.501500000000     0.131100000000     0.022600000000     0.0392604  
C        C      0.629600000000     0.498500000000     0.355933000000     0.0392604  
C        C      0.868900000000     0.370400000000     0.689267000000     0.0392604  
C        C      0.208400000000     0.502500000000     0.008000000000     0.0392604  
C        C      0.497500000000     0.705900000000     0.674667000000     0.0392604  
C        C      0.294100000000     0.791600000000     0.341333000000     0.0392604  
C        C      0.502500000000     0.208400000000     0.992000000000     0.0392604  
C        C      0.705900000000     0.497500000000     0.325333000000     0.0392604  
C        C      0.791600000000     0.294100000000     0.658667000000     0.0392604  
C        C      0.890800000000     0.384600000000     0.932600000000     0.0392604  
C        C      0.615400000000     0.506200000000     0.599267000000     0.0392604  
C        C      0.493800000000     0.109200000000     0.265933000000     0.0392604  
C        C      0.384600000000     0.890800000000     0.067400000000     0.0392604  
C        C      0.506200000000     0.615400000000     0.400733000000     0.0392604  
C        C      0.109200000000     0.493800000000     0.734067000000     0.0392604  
C        C      0.871700000000     0.280100000000     0.946900000000     0.0392604  
C        C      0.719900000000     0.591600000000     0.613567000000     0.0392604  
C        C      0.408400000000     0.128300000000     0.280233000000     0.0392604  
C        C      0.280100000000     0.871700000000     0.053100000000     0.0392604  
C        C      0.591600000000     0.719900000000     0.386433000000     0.0392604  
C        C      0.128300000000     0.408400000000     0.719767000000     0.0392604  
C        C      0.802900000000     0.181800000000     0.921400000000     0.0392604  
C        C      0.818200000000     0.621100000000     0.588067000000     0.0392604  
C        C      0.378900000000     0.197100000000     0.254733000000     0.0392604  
C        C      0.181800000000     0.802900000000     0.078600000000     0.0392604  
C        C      0.621100000000     0.818200000000     0.411933000000     0.0392604  
C        C      0.197100000000     0.378900000000     0.745267000000     0.0392604  
C        C      0.758900000000     0.189100000000     0.880200000000     0.0392604  
C        C      0.810900000000     0.569800000000     0.546867000000     0.0392604  
C        C      0.430200000000     0.241100000000     0.213533000000     0.0392604  
C        C      0.189100000000     0.758900000000     0.119800000000     0.0392604  
C        C      0.569800000000     0.810900000000     0.453133000000     0.0392604  
C        C      0.241100000000     0.430200000000     0.786467000000     0.0392604  
C        C      0.779300000000     0.300700000000     0.866300000000     0.0392604  
C        C      0.699300000000     0.478600000000     0.532967000000     0.0392604  
C        C      0.521400000000     0.220700000000     0.199633000000     0.0392604  
C        C      0.300700000000     0.779300000000     0.133700000000     0.0392604  
C        C      0.478600000000     0.699300000000     0.467033000000     0.0392604  
C        C      0.220700000000     0.521400000000     0.800367000000     0.0392604  
C        C      0.843400000000     0.394200000000     0.892600000000     0.0392604  
C        C      0.605800000000     0.449200000000     0.559267000000     0.0392604  
C        C      0.550800000000     0.156600000000     0.225933000000     0.0392604  
C        C      0.394200000000     0.843400000000     0.107400000000     0.0392604  
C        C      0.449200000000     0.605800000000     0.440733000000     0.0392604  
C        C      0.156600000000     0.550800000000     0.774067000000     0.0392604  
C        C      0.687500000000     0.086000000000     0.851500000000     0.0392604  
C        C      0.914000000000     0.601500000000     0.518167000000     0.0392604  
C        C      0.398500000000     0.312500000000     0.184833000000     0.0392604  
C        C      0.086000000000     0.687500000000     0.148500000000     0.0392604  
C        C      0.601500000000     0.914000000000     0.481833000000     0.0392604  
C        C      0.312500000000     0.398500000000     0.815167000000     0.0392604  
O        O      0.534300000000     0.606600000000     0.145400000000    -0.332823   
O        O      0.393400000000     0.927700000000     0.812067000000    -0.332823   
O        O      0.072300000000     0.465700000000     0.478733000000    -0.332823   
O        O      0.606600000000     0.534300000000     0.854600000000    -0.332823   
O        O      0.927700000000     0.393400000000     0.187933000000    -0.332823   
O        O      0.465700000000     0.072300000000     0.521267000000    -0.332823   
O        O      0.411300000000     0.601800000000     0.196600000000    -0.332823   
O        O      0.398200000000     0.809500000000     0.863267000000    -0.332823   
O        O      0.190500000000     0.588700000000     0.529933000000    -0.332823   
O        O      0.601800000000     0.411300000000     0.803400000000    -0.332823   
O        O      0.809500000000     0.398200000000     0.136733000000    -0.332823   
O        O      0.588700000000     0.190500000000     0.470067000000    -0.332823   
O        O      0.871000000000     0.048800000000     0.255400000000    -0.332823   
O        O      0.951200000000     0.822200000000     0.922067000000    -0.332823   
O        O      0.177800000000     0.129000000000     0.588733000000    -0.332823   
O        O      0.048800000000     0.871000000000     0.744600000000    -0.332823   
O        O      0.822200000000     0.951200000000     0.077933000000    -0.332823   
O        O      0.129000000000     0.177800000000     0.411267000000    -0.332823   
O        O      0.915100000000     0.420900000000     0.393580000000    -0.332823   
O        O      0.579100000000     0.494200000000     0.060247000000    -0.332823   
O        O      0.505800000000     0.084900000000     0.726913000000    -0.332823   
O        O      0.420900000000     0.915100000000     0.606420000000    -0.332823   
O        O      0.494200000000     0.579100000000     0.939753000000    -0.332823   
O        O      0.084900000000     0.505800000000     0.273087000000    -0.332823   
O        O      0.838800000000     0.273200000000     0.441810000000    -0.332823   
O        O      0.726800000000     0.565600000000     0.108477000000    -0.332823   
O        O      0.434400000000     0.161200000000     0.775143000000    -0.332823   
O        O      0.273200000000     0.838800000000     0.558190000000    -0.332823   
O        O      0.565600000000     0.726800000000     0.891523000000    -0.332823   
O        O      0.161200000000     0.434400000000     0.224857000000    -0.332823   
O        O      0.351000000000     0.492500000000     0.075500000000    -0.332823   
O        O      0.507500000000     0.858500000000     0.742167000000    -0.332823   
O        O      0.141500000000     0.649000000000     0.408833000000    -0.332823   
O        O      0.492500000000     0.351000000000     0.924500000000    -0.332823   
O        O      0.858500000000     0.507500000000     0.257833000000    -0.332823   
O        O      0.649000000000     0.141500000000     0.591167000000    -0.332823   
O        O      0.212900000000     0.439600000000     0.126400000000    -0.332823   
O        O      0.560400000000     0.773300000000     0.793067000000    -0.332823   
O        O      0.226700000000     0.787100000000     0.459733000000    -0.332823   
O        O      0.439600000000     0.212900000000     0.873600000000    -0.332823   
O        O      0.773300000000     0.560400000000     0.206933000000    -0.332823   
O        O      0.787100000000     0.226700000000     0.540267000000    -0.332823   
O        O      0.949900000000     0.484600000000     0.957700000000    -0.332823   
O        O      0.515400000000     0.465300000000     0.624367000000    -0.332823   
O        O      0.534700000000     0.050100000000     0.291033000000    -0.332823   
O        O      0.484600000000     0.949900000000     0.042300000000    -0.332823   
O        O      0.465300000000     0.515400000000     0.375633000000    -0.332823   
O        O      0.050100000000     0.534700000000     0.708967000000    -0.332823   
O        O      0.665000000000     0.989500000000     0.866900000000    -0.332823   
O        O      0.010500000000     0.675500000000     0.533567000000    -0.332823   
O        O      0.324500000000     0.335000000000     0.200233000000    -0.332823   
O        O      0.989500000000     0.665000000000     0.133100000000    -0.332823   
O        O      0.675500000000     0.010500000000     0.466433000000    -0.332823   
O        O      0.335000000000     0.324500000000     0.799767000000    -0.332823   
O        O      0.656500000000     0.100500000000     0.813600000000    -0.332823   
O        O      0.899500000000     0.556000000000     0.480267000000    -0.332823   
O        O      0.444000000000     0.343500000000     0.146933000000    -0.332823   
O        O      0.100500000000     0.656500000000     0.186400000000    -0.332823   
O        O      0.556000000000     0.899500000000     0.519733000000    -0.332823   
O        O      0.343500000000     0.444000000000     0.853067000000    -0.332823   


