data_IBICUT_original

_audit_creation_method RASPA-1.0
_audit_creation_date 2022-1-31
_audit_author_name 'Felipe Lopes de Oliveira <felipe.lopes.oliveira@ibm.com>'

_cell_length_a    10.5104
_cell_length_b    17.7661
_cell_length_c    17.7661
_cell_angle_alpha 120
_cell_angle_beta  90
_cell_angle_gamma 90
_cell_volume      2872.99

_symmetry_cell_setting          triclinic
_symmetry_space_group_name_Hall 'P 1'
_symmetry_space_group_name_H-M  'P 1'
_symmetry_Int_Tables_number     1

_symmetry_equiv_pos_as_xyz 'x,y,z'

loop_
_atom_site_label
_atom_site_type_symbol
_atom_site_fract_x
_atom_site_fract_y
_atom_site_fract_z
_atom_site_charge
Zn       Zn     0.631620000000     0.456260000000     0.926790000000     0.427611   
Zn       Zn     0.298290000000     0.470530000000     0.543740000000     0.427611   
Zn       Zn     0.964950000000     0.073210000000     0.529470000000     0.427611   
Zn       Zn     0.131620000000     0.543740000000     0.073210000000     0.427611   
Zn       Zn     0.798290000000     0.529470000000     0.456260000000     0.427611   
Zn       Zn     0.464950000000     0.926790000000     0.470530000000     0.427611   
H        H      0.723000000000     0.525300000000     0.079200000000     0.232047   
H        H      0.919300000000     0.520800000000     0.302300000000     0.232047   
H        H      0.592100000000     0.433200000000     0.325300000000     0.232047   
H        H      0.537000000000     0.394900000000     0.186100000000     0.232047   
H        H      0.516600000000     0.530400000000     0.151800000000     0.232047   
H        H      0.494300000000     0.675200000000     0.193400000000     0.232047   
H        H      0.691300000000     0.652600000000     0.078500000000     0.232047   
H        H      0.632000000000     0.742700000000     0.144900000000     0.232047   
H        H      0.549300000000     0.672900000000     0.068300000000     0.232047   
H        H      0.731100000000     0.377500000000     0.023800000000     0.232047   
H        H      0.586200000000     0.380900000000     0.046700000000     0.232047   
H        H      0.640200000000     0.635300000000     0.270000000000     0.232047   
H        H      0.670300000000     0.726200000000     0.279800000000     0.232047   
H        H      0.751000000000     0.644700000000     0.216300000000     0.232047   
H        H      0.876500000000     0.481400000000     0.161100000000     0.232047   
H        H      0.389670000000     0.553900000000     0.474700000000     0.232047   
H        H      0.585970000000     0.781500000000     0.479200000000     0.232047   
H        H      0.258770000000     0.892100000000     0.566800000000     0.232047   
H        H      0.203670000000     0.791200000000     0.605100000000     0.232047   
H        H      0.183270000000     0.621400000000     0.469600000000     0.232047   
H        H      0.160970000000     0.518200000000     0.324800000000     0.232047   
H        H      0.357970000000     0.425900000000     0.347400000000     0.232047   
H        H      0.298670000000     0.402200000000     0.257300000000     0.232047   
H        H      0.215970000000     0.395400000000     0.327100000000     0.232047   
H        H      0.397770000000     0.646300000000     0.622500000000     0.232047   
H        H      0.252870000000     0.665800000000     0.619100000000     0.232047   
H        H      0.306870000000     0.634700000000     0.364700000000     0.232047   
H        H      0.336970000000     0.553600000000     0.273800000000     0.232047   
H        H      0.417670000000     0.571600000000     0.355300000000     0.232047   
H        H      0.543170000000     0.679700000000     0.518600000000     0.232047   
H        H      0.056330000000     0.920800000000     0.446100000000     0.232047   
H        H      0.252630000000     0.697700000000     0.218500000000     0.232047   
H        H      0.925430000000     0.674700000000     0.107900000000     0.232047   
H        H      0.870330000000     0.813900000000     0.208800000000     0.232047   
H        H      0.849930000000     0.848200000000     0.378600000000     0.232047   
H        H      0.827630000000     0.806600000000     0.481800000000     0.232047   
H        H      0.024630000000     0.921500000000     0.574100000000     0.232047   
H        H      0.965330000000     0.855100000000     0.597800000000     0.232047   
H        H      0.882630000000     0.931700000000     0.604600000000     0.232047   
H        H      0.064430000000     0.976200000000     0.353700000000     0.232047   
H        H      0.919530000000     0.953300000000     0.334200000000     0.232047   
H        H      0.973530000000     0.730000000000     0.365300000000     0.232047   
H        H      0.003630000000     0.720200000000     0.446400000000     0.232047   
H        H      0.084330000000     0.783700000000     0.428400000000     0.232047   
H        H      0.209830000000     0.838900000000     0.320300000000     0.232047   
H        H      0.223000000000     0.474700000000     0.920800000000     0.232047   
H        H      0.419300000000     0.479200000000     0.697700000000     0.232047   
H        H      0.092100000000     0.566800000000     0.674700000000     0.232047   
H        H      0.037000000000     0.605100000000     0.813900000000     0.232047   
H        H      0.016600000000     0.469600000000     0.848200000000     0.232047   
H        H      0.994300000000     0.324800000000     0.806600000000     0.232047   
H        H      0.191300000000     0.347400000000     0.921500000000     0.232047   
H        H      0.132000000000     0.257300000000     0.855100000000     0.232047   
H        H      0.049300000000     0.327100000000     0.931700000000     0.232047   
H        H      0.231100000000     0.622500000000     0.976200000000     0.232047   
H        H      0.086200000000     0.619100000000     0.953300000000     0.232047   
H        H      0.140200000000     0.364700000000     0.730000000000     0.232047   
H        H      0.170300000000     0.273800000000     0.720200000000     0.232047   
H        H      0.251000000000     0.355300000000     0.783700000000     0.232047   
H        H      0.376500000000     0.518600000000     0.838900000000     0.232047   
H        H      0.889670000000     0.446100000000     0.525300000000     0.232047   
H        H      0.085970000000     0.218500000000     0.520800000000     0.232047   
H        H      0.758770000000     0.107900000000     0.433200000000     0.232047   
H        H      0.703670000000     0.208800000000     0.394900000000     0.232047   
H        H      0.683270000000     0.378600000000     0.530400000000     0.232047   
H        H      0.660970000000     0.481800000000     0.675200000000     0.232047   
H        H      0.857970000000     0.574100000000     0.652600000000     0.232047   
H        H      0.798670000000     0.597800000000     0.742700000000     0.232047   
H        H      0.715970000000     0.604600000000     0.672900000000     0.232047   
H        H      0.897770000000     0.353700000000     0.377500000000     0.232047   
H        H      0.752870000000     0.334200000000     0.380900000000     0.232047   
H        H      0.806870000000     0.365300000000     0.635300000000     0.232047   
H        H      0.836970000000     0.446400000000     0.726200000000     0.232047   
H        H      0.917670000000     0.428400000000     0.644700000000     0.232047   
H        H      0.043170000000     0.320300000000     0.481400000000     0.232047   
H        H      0.556330000000     0.079200000000     0.553900000000     0.232047   
H        H      0.752630000000     0.302300000000     0.781500000000     0.232047   
H        H      0.425430000000     0.325300000000     0.892100000000     0.232047   
H        H      0.370330000000     0.186100000000     0.791200000000     0.232047   
H        H      0.349930000000     0.151800000000     0.621400000000     0.232047   
H        H      0.327630000000     0.193400000000     0.518200000000     0.232047   
H        H      0.524630000000     0.078500000000     0.425900000000     0.232047   
H        H      0.465330000000     0.144900000000     0.402200000000     0.232047   
H        H      0.382630000000     0.068300000000     0.395400000000     0.232047   
H        H      0.564430000000     0.023800000000     0.646300000000     0.232047   
H        H      0.419530000000     0.046700000000     0.665800000000     0.232047   
H        H      0.473530000000     0.270000000000     0.634700000000     0.232047   
H        H      0.503630000000     0.279800000000     0.553600000000     0.232047   
H        H      0.584330000000     0.216300000000     0.571600000000     0.232047   
H        H      0.709830000000     0.161100000000     0.679700000000     0.232047   
C        C      0.841700000000     0.494900000000     0.278000000000    -0.228422   
C        C      0.649000000000     0.443900000000     0.291700000000    -0.228422   
C        C      0.615900000000     0.420100000000     0.207800000000    -0.228422   
C        C      0.540900000000     0.549900000000     0.111100000000    -0.228422   
C        C      0.424900000000     0.533300000000     0.051600000000    -0.228422   
C        C      0.573700000000     0.645300000000     0.165500000000    -0.228422   
C        C      0.615300000000     0.681700000000     0.109200000000    -0.228422   
C        C      0.700000000000     0.433500000000     0.154900000000    -0.228422   
C        C      0.665200000000     0.413500000000     0.064100000000    -0.228422   
C        C      0.667700000000     0.664700000000     0.239900000000    -0.228422   
C        C      0.815800000000     0.471600000000     0.193300000000    -0.228422   
C        C      0.508370000000     0.783100000000     0.505100000000    -0.228422   
C        C      0.315670000000     0.847800000000     0.556100000000    -0.228422   
C        C      0.282570000000     0.787700000000     0.579900000000    -0.228422   
C        C      0.207570000000     0.561200000000     0.450100000000    -0.228422   
C        C      0.091570000000     0.518300000000     0.466700000000    -0.228422   
C        C      0.240370000000     0.520200000000     0.354700000000    -0.228422   
C        C      0.281970000000     0.427500000000     0.318300000000    -0.228422   
C        C      0.366670000000     0.721400000000     0.566500000000    -0.228422   
C        C      0.331870000000     0.650600000000     0.586500000000    -0.228422   
C        C      0.334370000000     0.575200000000     0.335300000000    -0.228422   
C        C      0.482470000000     0.721700000000     0.528400000000    -0.228422   
C        C      0.175030000000     0.722000000000     0.216900000000    -0.228422   
C        C      0.982330000000     0.708300000000     0.152200000000    -0.228422   
C        C      0.949230000000     0.792200000000     0.212300000000    -0.228422   
C        C      0.874230000000     0.888900000000     0.438800000000    -0.228422   
C        C      0.758230000000     0.948400000000     0.481700000000    -0.228422   
C        C      0.907030000000     0.834500000000     0.479800000000    -0.228422   
C        C      0.948630000000     0.890800000000     0.572500000000    -0.228422   
C        C      0.033330000000     0.845100000000     0.278600000000    -0.228422   
C        C      0.998530000000     0.935900000000     0.349400000000    -0.228422   
C        C      0.001030000000     0.760100000000     0.424800000000    -0.228422   
C        C      0.149130000000     0.806700000000     0.278300000000    -0.228422   
C        C      0.341700000000     0.505100000000     0.722000000000    -0.228422   
C        C      0.149000000000     0.556100000000     0.708300000000    -0.228422   
C        C      0.115900000000     0.579900000000     0.792200000000    -0.228422   
C        C      0.040900000000     0.450100000000     0.888900000000    -0.228422   
C        C      0.924900000000     0.466700000000     0.948400000000    -0.228422   
C        C      0.073700000000     0.354700000000     0.834500000000    -0.228422   
C        C      0.115300000000     0.318300000000     0.890800000000    -0.228422   
C        C      0.200000000000     0.566500000000     0.845100000000    -0.228422   
C        C      0.165200000000     0.586500000000     0.935900000000    -0.228422   
C        C      0.167700000000     0.335300000000     0.760100000000    -0.228422   
C        C      0.315800000000     0.528400000000     0.806700000000    -0.228422   
C        C      0.008370000000     0.216900000000     0.494900000000    -0.228422   
C        C      0.815670000000     0.152200000000     0.443900000000    -0.228422   
C        C      0.782570000000     0.212300000000     0.420100000000    -0.228422   
C        C      0.707570000000     0.438800000000     0.549900000000    -0.228422   
C        C      0.591570000000     0.481700000000     0.533300000000    -0.228422   
C        C      0.740370000000     0.479800000000     0.645300000000    -0.228422   
C        C      0.781970000000     0.572500000000     0.681700000000    -0.228422   
C        C      0.866670000000     0.278600000000     0.433500000000    -0.228422   
C        C      0.831870000000     0.349400000000     0.413500000000    -0.228422   
C        C      0.834370000000     0.424800000000     0.664700000000    -0.228422   
C        C      0.982470000000     0.278300000000     0.471600000000    -0.228422   
C        C      0.675030000000     0.278000000000     0.783100000000    -0.228422   
C        C      0.482330000000     0.291700000000     0.847800000000    -0.228422   
C        C      0.449230000000     0.207800000000     0.787700000000    -0.228422   
C        C      0.374230000000     0.111100000000     0.561200000000    -0.228422   
C        C      0.258230000000     0.051600000000     0.518300000000    -0.228422   
C        C      0.407030000000     0.165500000000     0.520200000000    -0.228422   
C        C      0.448630000000     0.109200000000     0.427500000000    -0.228422   
C        C      0.533330000000     0.154900000000     0.721400000000    -0.228422   
C        C      0.498530000000     0.064100000000     0.650600000000    -0.228422   
C        C      0.501030000000     0.239900000000     0.575200000000    -0.228422   
C        C      0.649130000000     0.193300000000     0.721700000000    -0.228422   
N        N      0.758100000000     0.481300000000     0.326000000000    -0.139047   
N        N      0.650300000000     0.493600000000     0.058800000000    -0.139047   
N        N      0.424770000000     0.844700000000     0.518700000000    -0.139047   
N        N      0.316970000000     0.565200000000     0.506400000000    -0.139047   
N        N      0.091430000000     0.674000000000     0.155300000000    -0.139047   
N        N      0.983630000000     0.941200000000     0.434800000000    -0.139047   
N        N      0.258100000000     0.518700000000     0.674000000000    -0.139047   
N        N      0.150300000000     0.506400000000     0.941200000000    -0.139047   
N        N      0.924770000000     0.155300000000     0.481300000000    -0.139047   
N        N      0.816970000000     0.434800000000     0.493600000000    -0.139047   
N        N      0.591430000000     0.326000000000     0.844700000000    -0.139047   
N        N      0.483630000000     0.058800000000     0.565200000000    -0.139047   
Cl       Cl     0.639800000000     0.539970000000     0.868000000000    -0.434931   
Cl       Cl     0.306470000000     0.328030000000     0.460030000000    -0.434931   
Cl       Cl     0.973130000000     0.132000000000     0.671970000000    -0.434931   
Cl       Cl     0.139800000000     0.460030000000     0.132000000000    -0.434931   
Cl       Cl     0.806470000000     0.671970000000     0.539970000000    -0.434931   
Cl       Cl     0.473130000000     0.868000000000     0.328030000000    -0.434931   
O        O      0.327400000000     0.574900000000     0.090100000000    -0.341323   
O        O      0.434900000000     0.483200000000     0.972300000000    -0.341323   
O        O      0.994070000000     0.515200000000     0.425100000000    -0.341323   
O        O      0.101570000000     0.489100000000     0.516800000000    -0.341323   
O        O      0.660730000000     0.909900000000     0.484800000000    -0.341323   
O        O      0.768230000000     0.027700000000     0.510900000000    -0.341323   
O        O      0.827400000000     0.425100000000     0.909900000000    -0.341323   
O        O      0.934900000000     0.516800000000     0.027700000000    -0.341323   
O        O      0.494070000000     0.484800000000     0.574900000000    -0.341323   
O        O      0.601570000000     0.510900000000     0.483200000000    -0.341323   
O        O      0.160730000000     0.090100000000     0.515200000000    -0.341323   
O        O      0.268230000000     0.972300000000     0.489100000000    -0.341323   


