data_IBICED_original

_audit_creation_method RASPA-1.0
_audit_creation_date 2022-1-30
_audit_author_name 'Felipe Lopes de Oliveira <felipe.lopes.oliveira@ibm.com>'

_cell_length_a    10.4796
_cell_length_b    17.768
_cell_length_c    17.768
_cell_angle_alpha 120
_cell_angle_beta  90
_cell_angle_gamma 90
_cell_volume      2865.18

_symmetry_cell_setting          triclinic
_symmetry_space_group_name_Hall 'P 1'
_symmetry_space_group_name_H-M  'P 1'
_symmetry_Int_Tables_number     1

_symmetry_equiv_pos_as_xyz 'x,y,z'

loop_
_atom_site_label
_atom_site_type_symbol
_atom_site_fract_x
_atom_site_fract_y
_atom_site_fract_z
_atom_site_charge
Zn       Zn     0.737150000000     0.472210000000     0.542930000000     0.401993   
Zn       Zn     0.403820000000     0.070720000000     0.527790000000     0.401993   
Zn       Zn     0.070480000000     0.457070000000     0.929280000000     0.401993   
Zn       Zn     0.237150000000     0.527790000000     0.457070000000     0.401993   
Zn       Zn     0.903820000000     0.929280000000     0.472210000000     0.401993   
Zn       Zn     0.570480000000     0.542930000000     0.070720000000     0.401993   
H        H      0.829200000000     0.554900000000     0.475300000000     0.218852   
H        H      0.623300000000     0.624800000000     0.470900000000     0.218852   
H        H      0.598200000000     0.520800000000     0.325000000000     0.218852   
H        H      0.757200000000     0.408500000000     0.260500000000     0.218852   
H        H      0.647600000000     0.393300000000     0.311600000000     0.218852   
H        H      0.782100000000     0.425000000000     0.354600000000     0.218852   
H        H      0.857900000000     0.568200000000     0.351500000000     0.218852   
H        H      0.750500000000     0.635700000000     0.366400000000     0.218852   
H        H      0.773000000000     0.555600000000     0.273400000000     0.218852   
H        H      0.701800000000     0.897300000000     0.573200000000     0.218852   
H        H      0.021700000000     0.776800000000     0.472400000000     0.218852   
H        H      0.645800000000     0.793800000000     0.612100000000     0.218852   
H        H      0.981100000000     0.677800000000     0.516300000000     0.218852   
H        H      0.694900000000     0.669400000000     0.620200000000     0.218852   
H        H      0.840100000000     0.649700000000     0.622400000000     0.218852   
H        H      0.495870000000     0.920400000000     0.445100000000     0.218852   
H        H      0.289970000000     0.846100000000     0.375200000000     0.218852   
H        H      0.264870000000     0.804200000000     0.479200000000     0.218852   
H        H      0.423870000000     0.852000000000     0.591500000000     0.218852   
H        H      0.314270000000     0.918300000000     0.606700000000     0.218852   
H        H      0.448770000000     0.929600000000     0.575000000000     0.218852   
H        H      0.524570000000     0.783300000000     0.431800000000     0.218852   
H        H      0.417170000000     0.730700000000     0.364300000000     0.218852   
H        H      0.439670000000     0.717800000000     0.444400000000     0.218852   
H        H      0.368470000000     0.675900000000     0.102700000000     0.218852   
H        H      0.688370000000     0.695600000000     0.223200000000     0.218852   
H        H      0.312470000000     0.818300000000     0.206200000000     0.218852   
H        H      0.647770000000     0.838500000000     0.322200000000     0.218852   
H        H      0.361570000000     0.950800000000     0.330600000000     0.218852   
H        H      0.506770000000     0.972700000000     0.350300000000     0.218852   
H        H      0.162530000000     0.524700000000     0.079600000000     0.218852   
H        H      0.956630000000     0.529100000000     0.153900000000     0.218852   
H        H      0.931530000000     0.675000000000     0.195800000000     0.218852   
H        H      0.090530000000     0.739500000000     0.148000000000     0.218852   
H        H      0.980930000000     0.688400000000     0.081700000000     0.218852   
H        H      0.115430000000     0.645400000000     0.070400000000     0.218852   
H        H      0.191230000000     0.648500000000     0.216700000000     0.218852   
H        H      0.083830000000     0.633600000000     0.269300000000     0.218852   
H        H      0.106330000000     0.726600000000     0.282200000000     0.218852   
H        H      0.035130000000     0.426800000000     0.324100000000     0.218852   
H        H      0.355030000000     0.527600000000     0.304400000000     0.218852   
H        H      0.979130000000     0.387900000000     0.181700000000     0.218852   
H        H      0.314430000000     0.483700000000     0.161500000000     0.218852   
H        H      0.028230000000     0.379800000000     0.049200000000     0.218852   
H        H      0.173430000000     0.377600000000     0.027300000000     0.218852   
H        H      0.329200000000     0.445100000000     0.524700000000     0.218852   
H        H      0.123300000000     0.375200000000     0.529100000000     0.218852   
H        H      0.098200000000     0.479200000000     0.675000000000     0.218852   
H        H      0.257200000000     0.591500000000     0.739500000000     0.218852   
H        H      0.147600000000     0.606700000000     0.688400000000     0.218852   
H        H      0.282100000000     0.575000000000     0.645400000000     0.218852   
H        H      0.357900000000     0.431800000000     0.648500000000     0.218852   
H        H      0.250500000000     0.364300000000     0.633600000000     0.218852   
H        H      0.273000000000     0.444400000000     0.726600000000     0.218852   
H        H      0.201800000000     0.102700000000     0.426800000000     0.218852   
H        H      0.521700000000     0.223200000000     0.527600000000     0.218852   
H        H      0.145800000000     0.206200000000     0.387900000000     0.218852   
H        H      0.481100000000     0.322200000000     0.483700000000     0.218852   
H        H      0.194900000000     0.330600000000     0.379800000000     0.218852   
H        H      0.340100000000     0.350300000000     0.377600000000     0.218852   
H        H      0.995870000000     0.079600000000     0.554900000000     0.218852   
H        H      0.789970000000     0.153900000000     0.624800000000     0.218852   
H        H      0.764870000000     0.195800000000     0.520800000000     0.218852   
H        H      0.923870000000     0.148000000000     0.408500000000     0.218852   
H        H      0.814270000000     0.081700000000     0.393300000000     0.218852   
H        H      0.948770000000     0.070400000000     0.425000000000     0.218852   
H        H      0.024570000000     0.216700000000     0.568200000000     0.218852   
H        H      0.917170000000     0.269300000000     0.635700000000     0.218852   
H        H      0.939670000000     0.282200000000     0.555600000000     0.218852   
H        H      0.868470000000     0.324100000000     0.897300000000     0.218852   
H        H      0.188370000000     0.304400000000     0.776800000000     0.218852   
H        H      0.812470000000     0.181700000000     0.793800000000     0.218852   
H        H      0.147770000000     0.161500000000     0.677800000000     0.218852   
H        H      0.861570000000     0.049200000000     0.669400000000     0.218852   
H        H      0.006770000000     0.027300000000     0.649700000000     0.218852   
H        H      0.662530000000     0.475300000000     0.920400000000     0.218852   
H        H      0.456630000000     0.470900000000     0.846100000000     0.218852   
H        H      0.431530000000     0.325000000000     0.804200000000     0.218852   
H        H      0.590530000000     0.260500000000     0.852000000000     0.218852   
H        H      0.480930000000     0.311600000000     0.918300000000     0.218852   
H        H      0.615430000000     0.354600000000     0.929600000000     0.218852   
H        H      0.691230000000     0.351500000000     0.783300000000     0.218852   
H        H      0.583830000000     0.366400000000     0.730700000000     0.218852   
H        H      0.606330000000     0.273400000000     0.717800000000     0.218852   
H        H      0.535130000000     0.573200000000     0.675900000000     0.218852   
H        H      0.855030000000     0.472400000000     0.695600000000     0.218852   
H        H      0.479130000000     0.612100000000     0.818300000000     0.218852   
H        H      0.814430000000     0.516300000000     0.838500000000     0.218852   
H        H      0.528230000000     0.620200000000     0.950800000000     0.218852   
H        H      0.673430000000     0.622400000000     0.972700000000     0.218852   
C        C      0.531000000000     0.521000000000     0.467800000000    -0.215189   
C        C      0.647100000000     0.564400000000     0.451100000000    -0.215189   
C        C      0.678000000000     0.522000000000     0.354400000000    -0.215189   
C        C      0.720000000000     0.428700000000     0.316800000000    -0.215189   
C        C      0.773900000000     0.575400000000     0.334600000000    -0.215189   
C        C      0.756800000000     0.851200000000     0.559900000000    -0.215189   
C        C      0.946200000000     0.780800000000     0.501700000000    -0.215189   
C        C      0.723300000000     0.789700000000     0.584700000000    -0.215189   
C        C      0.806800000000     0.723800000000     0.567700000000    -0.215189   
C        C      0.921400000000     0.720700000000     0.526700000000    -0.215189   
C        C      0.773400000000     0.653800000000     0.586800000000    -0.215189   
C        C      0.197670000000     0.946800000000     0.479000000000    -0.215189   
C        C      0.313770000000     0.886700000000     0.435600000000    -0.215189   
C        C      0.344670000000     0.832400000000     0.478000000000    -0.215189   
C        C      0.386670000000     0.888100000000     0.571300000000    -0.215189   
C        C      0.440570000000     0.759200000000     0.424600000000    -0.215189   
C        C      0.423470000000     0.708700000000     0.148800000000    -0.215189   
C        C      0.612870000000     0.720900000000     0.219200000000    -0.215189   
C        C      0.389970000000     0.795000000000     0.210300000000    -0.215189   
C        C      0.473470000000     0.843900000000     0.276200000000    -0.215189   
C        C      0.588070000000     0.806000000000     0.279300000000    -0.215189   
C        C      0.440070000000     0.933000000000     0.346200000000    -0.215189   
C        C      0.864330000000     0.532200000000     0.053200000000    -0.215189   
C        C      0.980430000000     0.548900000000     0.113300000000    -0.215189   
C        C      0.011330000000     0.645600000000     0.167600000000    -0.215189   
C        C      0.053330000000     0.683200000000     0.111900000000    -0.215189   
C        C      0.107230000000     0.665400000000     0.240800000000    -0.215189   
C        C      0.090130000000     0.440100000000     0.291300000000    -0.215189   
C        C      0.279530000000     0.498300000000     0.279100000000    -0.215189   
C        C      0.056630000000     0.415300000000     0.205000000000    -0.215189   
C        C      0.140130000000     0.432300000000     0.156100000000    -0.215189   
C        C      0.254730000000     0.473300000000     0.194000000000    -0.215189   
C        C      0.106730000000     0.413200000000     0.067000000000    -0.215189   
C        C      0.031000000000     0.479000000000     0.532200000000    -0.215189   
C        C      0.147100000000     0.435600000000     0.548900000000    -0.215189   
C        C      0.178000000000     0.478000000000     0.645600000000    -0.215189   
C        C      0.220000000000     0.571300000000     0.683200000000    -0.215189   
C        C      0.273900000000     0.424600000000     0.665400000000    -0.215189   
C        C      0.256800000000     0.148800000000     0.440100000000    -0.215189   
C        C      0.446200000000     0.219200000000     0.498300000000    -0.215189   
C        C      0.223300000000     0.210300000000     0.415300000000    -0.215189   
C        C      0.306800000000     0.276200000000     0.432300000000    -0.215189   
C        C      0.421400000000     0.279300000000     0.473300000000    -0.215189   
C        C      0.273400000000     0.346200000000     0.413200000000    -0.215189   
C        C      0.697670000000     0.053200000000     0.521000000000    -0.215189   
C        C      0.813770000000     0.113300000000     0.564400000000    -0.215189   
C        C      0.844670000000     0.167600000000     0.522000000000    -0.215189   
C        C      0.886670000000     0.111900000000     0.428700000000    -0.215189   
C        C      0.940570000000     0.240800000000     0.575400000000    -0.215189   
C        C      0.923470000000     0.291300000000     0.851200000000    -0.215189   
C        C      0.112870000000     0.279100000000     0.780800000000    -0.215189   
C        C      0.889970000000     0.205000000000     0.789700000000    -0.215189   
C        C      0.973470000000     0.156100000000     0.723800000000    -0.215189   
C        C      0.088070000000     0.194000000000     0.720700000000    -0.215189   
C        C      0.940070000000     0.067000000000     0.653800000000    -0.215189   
C        C      0.364330000000     0.467800000000     0.946800000000    -0.215189   
C        C      0.480430000000     0.451100000000     0.886700000000    -0.215189   
C        C      0.511330000000     0.354400000000     0.832400000000    -0.215189   
C        C      0.553330000000     0.316800000000     0.888100000000    -0.215189   
C        C      0.607230000000     0.334600000000     0.759200000000    -0.215189   
C        C      0.590130000000     0.559900000000     0.708700000000    -0.215189   
C        C      0.779530000000     0.501700000000     0.720900000000    -0.215189   
C        C      0.556630000000     0.584700000000     0.795000000000    -0.215189   
C        C      0.640130000000     0.567700000000     0.843900000000    -0.215189   
C        C      0.754730000000     0.526700000000     0.806000000000    -0.215189   
C        C      0.606730000000     0.586800000000     0.933000000000    -0.215189   
Br       Br     0.748390000000     0.320320000000     0.451830000000    -0.364001   
Br       Br     0.415060000000     0.131510000000     0.679680000000    -0.364001   
Br       Br     0.081720000000     0.548170000000     0.868490000000    -0.364001   
Br       Br     0.248390000000     0.679680000000     0.548170000000    -0.364001   
Br       Br     0.915060000000     0.868490000000     0.320320000000    -0.364001   
Br       Br     0.581720000000     0.451830000000     0.131510000000    -0.364001   
N        N      0.756500000000     0.566900000000     0.507400000000    -0.141471   
N        N      0.863900000000     0.845200000000     0.518500000000    -0.141471   
N        N      0.423170000000     0.940500000000     0.433100000000    -0.141471   
N        N      0.530570000000     0.673300000000     0.154800000000    -0.141471   
N        N      0.089830000000     0.492600000000     0.059500000000    -0.141471   
N        N      0.197230000000     0.481500000000     0.326700000000    -0.141471   
N        N      0.256500000000     0.433100000000     0.492600000000    -0.141471   
N        N      0.363900000000     0.154800000000     0.481500000000    -0.141471   
N        N      0.923170000000     0.059500000000     0.566900000000    -0.141471   
N        N      0.030570000000     0.326700000000     0.845200000000    -0.141471   
N        N      0.589830000000     0.507400000000     0.940500000000    -0.141471   
N        N      0.697230000000     0.518500000000     0.673300000000    -0.141471   
O        O      0.541100000000     0.488300000000     0.515600000000    -0.335375   
O        O      0.432300000000     0.520700000000     0.428000000000    -0.335375   
O        O      0.207770000000     0.027300000000     0.511700000000    -0.335375   
O        O      0.098970000000     0.907300000000     0.479300000000    -0.335375   
O        O      0.874430000000     0.484400000000     0.972700000000    -0.335375   
O        O      0.765630000000     0.572000000000     0.092700000000    -0.335375   
O        O      0.041100000000     0.511700000000     0.484400000000    -0.335375   
O        O      0.932300000000     0.479300000000     0.572000000000    -0.335375   
O        O      0.707770000000     0.972700000000     0.488300000000    -0.335375   
O        O      0.598970000000     0.092700000000     0.520700000000    -0.335375   
O        O      0.374430000000     0.515600000000     0.027300000000    -0.335375   
O        O      0.265630000000     0.428000000000     0.907300000000    -0.335375   


