data_IBUYAH_original

_audit_creation_method RASPA-1.0
_audit_creation_date 2022-1-30
_audit_author_name 'Felipe Lopes de Oliveira <felipe.lopes.oliveira@ibm.com>'

_cell_length_a    7.73
_cell_length_b    17.797
_cell_length_c    26.675
_cell_angle_alpha 93.466
_cell_angle_beta  90
_cell_angle_gamma 90
_cell_volume      3662.99

_symmetry_cell_setting          triclinic
_symmetry_space_group_name_Hall 'P 1'
_symmetry_space_group_name_H-M  'P 1'
_symmetry_Int_Tables_number     1

_symmetry_equiv_pos_as_xyz 'x,y,z'

loop_
_atom_site_label
_atom_site_type_symbol
_atom_site_fract_x
_atom_site_fract_y
_atom_site_fract_z
_atom_site_charge
Zn       Zn     0.432000000000     0.196570000000     0.024000000000     0.445521   
Zn       Zn     0.976470000000     0.303410000000     0.963330000000     0.445521   
Zn       Zn     0.932000000000     0.803430000000     0.476000000000     0.445521   
Zn       Zn     0.476470000000     0.696590000000     0.536670000000     0.445521   
Zn       Zn     0.568000000000     0.803430000000     0.976000000000     0.445521   
Zn       Zn     0.023530000000     0.696590000000     0.036670000000     0.445521   
Zn       Zn     0.068000000000     0.196570000000     0.524000000000     0.445521   
Zn       Zn     0.523530000000     0.303410000000     0.463330000000     0.445521   
H        H      0.277400000000     0.042600000000     0.989800000000     0.0545694  
H        H      0.644200000000     0.452800000000     0.066400000000     0.0545694  
H        H      0.328700000000     0.768000000000     0.093400000000     0.0545694  
H        H      0.145400000000     0.566400000000     0.111200000000     0.0545694  
H        H      0.399900000000     0.581800000000     0.163900000000     0.0545694  
H        H      0.642000000000     0.776400000000     0.099700000000     0.0545694  
H        H      0.887300000000     0.830200000000     0.134700000000     0.0545694  
H        H      0.797200000000     0.726800000000     0.261100000000     0.0545694  
H        H      0.549900000000     0.673700000000     0.225700000000     0.0545694  
H        H      0.129500000000     0.684200000000     0.231200000000     0.0545694  
H        H      0.264400000000     0.630900000000     0.298000000000     0.0545694  
H        H      0.253200000000     0.830100000000     0.375300000000     0.0545694  
H        H      0.114200000000     0.882400000000     0.308900000000     0.0545694  
H        H      0.289300000000     0.763900000000     0.444400000000     0.0545694  
H        H      0.468700000000     0.595000000000     0.356300000000     0.0545694  
H        H      0.561000000000     0.577900000000     0.442000000000     0.0545694  
H        H      0.847300000000     0.945600000000     0.216200000000     0.0545694  
H        H      0.934000000000     0.055500000000     0.182300000000     0.0545694  
H        H      0.409200000000     0.972800000000     0.162700000000     0.0545694  
H        H      0.321100000000     0.860100000000     0.194300000000     0.0545694  
H        H      0.101500000000     0.176300000000     0.185100000000     0.0545694  
H        H      0.377700000000     0.053100000000     0.086600000000     0.0545694  
H        H      0.218200000000     0.258500000000     0.123400000000     0.0545694  
H        H      0.777400000000     0.957400000000     0.510200000000     0.0545694  
H        H      0.144200000000     0.547200000000     0.433600000000     0.0545694  
H        H      0.828700000000     0.232000000000     0.406600000000     0.0545694  
H        H      0.645400000000     0.433600000000     0.388800000000     0.0545694  
H        H      0.899900000000     0.418200000000     0.336100000000     0.0545694  
H        H      0.142000000000     0.223600000000     0.400300000000     0.0545694  
H        H      0.387300000000     0.169800000000     0.365300000000     0.0545694  
H        H      0.297200000000     0.273200000000     0.238900000000     0.0545694  
H        H      0.049900000000     0.326300000000     0.274300000000     0.0545694  
H        H      0.629500000000     0.315800000000     0.268800000000     0.0545694  
H        H      0.764400000000     0.369100000000     0.202000000000     0.0545694  
H        H      0.753200000000     0.169900000000     0.124700000000     0.0545694  
H        H      0.614200000000     0.117600000000     0.191100000000     0.0545694  
H        H      0.789300000000     0.236100000000     0.055600000000     0.0545694  
H        H      0.968700000000     0.405000000000     0.143700000000     0.0545694  
H        H      0.061000000000     0.422100000000     0.058000000000     0.0545694  
H        H      0.347300000000     0.054400000000     0.283800000000     0.0545694  
H        H      0.434000000000     0.944500000000     0.317700000000     0.0545694  
H        H      0.909200000000     0.027200000000     0.337300000000     0.0545694  
H        H      0.821100000000     0.139900000000     0.305700000000     0.0545694  
H        H      0.601500000000     0.823700000000     0.314900000000     0.0545694  
H        H      0.877700000000     0.946900000000     0.413400000000     0.0545694  
H        H      0.718200000000     0.741500000000     0.376600000000     0.0545694  
H        H      0.722600000000     0.957400000000     0.010200000000     0.0545694  
H        H      0.355800000000     0.547200000000     0.933600000000     0.0545694  
H        H      0.671300000000     0.232000000000     0.906600000000     0.0545694  
H        H      0.854600000000     0.433600000000     0.888800000000     0.0545694  
H        H      0.600100000000     0.418200000000     0.836100000000     0.0545694  
H        H      0.358000000000     0.223600000000     0.900300000000     0.0545694  
H        H      0.112700000000     0.169800000000     0.865300000000     0.0545694  
H        H      0.202800000000     0.273200000000     0.738900000000     0.0545694  
H        H      0.450100000000     0.326300000000     0.774300000000     0.0545694  
H        H      0.870500000000     0.315800000000     0.768800000000     0.0545694  
H        H      0.735600000000     0.369100000000     0.702000000000     0.0545694  
H        H      0.746800000000     0.169900000000     0.624700000000     0.0545694  
H        H      0.885800000000     0.117600000000     0.691100000000     0.0545694  
H        H      0.710700000000     0.236100000000     0.555600000000     0.0545694  
H        H      0.531300000000     0.405000000000     0.643700000000     0.0545694  
H        H      0.439000000000     0.422100000000     0.558000000000     0.0545694  
H        H      0.152700000000     0.054400000000     0.783800000000     0.0545694  
H        H      0.066000000000     0.944500000000     0.817700000000     0.0545694  
H        H      0.590800000000     0.027200000000     0.837300000000     0.0545694  
H        H      0.678900000000     0.139900000000     0.805700000000     0.0545694  
H        H      0.898500000000     0.823700000000     0.814900000000     0.0545694  
H        H      0.622300000000     0.946900000000     0.913400000000     0.0545694  
H        H      0.781800000000     0.741500000000     0.876600000000     0.0545694  
H        H      0.222600000000     0.042600000000     0.489800000000     0.0545694  
H        H      0.855800000000     0.452800000000     0.566400000000     0.0545694  
H        H      0.171300000000     0.768000000000     0.593400000000     0.0545694  
H        H      0.354600000000     0.566400000000     0.611200000000     0.0545694  
H        H      0.100100000000     0.581800000000     0.663900000000     0.0545694  
H        H      0.858000000000     0.776400000000     0.599700000000     0.0545694  
H        H      0.612700000000     0.830200000000     0.634700000000     0.0545694  
H        H      0.702800000000     0.726800000000     0.761100000000     0.0545694  
H        H      0.950100000000     0.673700000000     0.725700000000     0.0545694  
H        H      0.370500000000     0.684200000000     0.731200000000     0.0545694  
H        H      0.235600000000     0.630900000000     0.798000000000     0.0545694  
H        H      0.246800000000     0.830100000000     0.875300000000     0.0545694  
H        H      0.385800000000     0.882400000000     0.808900000000     0.0545694  
H        H      0.210700000000     0.763900000000     0.944400000000     0.0545694  
H        H      0.031300000000     0.595000000000     0.856300000000     0.0545694  
H        H      0.939000000000     0.577900000000     0.942000000000     0.0545694  
H        H      0.652700000000     0.945600000000     0.716200000000     0.0545694  
H        H      0.566000000000     0.055500000000     0.682300000000     0.0545694  
H        H      0.090800000000     0.972800000000     0.662700000000     0.0545694  
H        H      0.178900000000     0.860100000000     0.694300000000     0.0545694  
H        H      0.398500000000     0.176300000000     0.685100000000     0.0545694  
H        H      0.122300000000     0.053100000000     0.586600000000     0.0545694  
H        H      0.281800000000     0.258500000000     0.623400000000     0.0545694  
C        C      0.028800000000     0.074310000000     0.988080000000     0.0309595  
C        C      0.165300000000     0.025150000000     0.994150000000     0.0309595  
C        C      0.857600000000     0.048800000000     0.993640000000     0.0309595  
C        C      0.070100000000     0.153390000000     0.976070000000     0.0309595  
C        C      0.692400000000     0.094060000000     0.986860000000     0.0309595  
C        C      0.458500000000     0.344110000000     0.026380000000     0.0309595  
C        C      0.476300000000     0.424540000000     0.011380000000     0.0309595  
C        C      0.251100000000     0.409340000000     0.942170000000     0.0309595  
C        C      0.388300000000     0.453670000000     0.971010000000     0.0309595  
C        C      0.585700000000     0.471690000000     0.039460000000     0.0309595  
C        C      0.314300000000     0.719800000000     0.104310000000     0.0309595  
C        C      0.214700000000     0.609200000000     0.114260000000     0.0309595  
C        C      0.354600000000     0.617300000000     0.143380000000     0.0309595  
C        C      0.571100000000     0.720690000000     0.159510000000     0.0309595  
C        C      0.672700000000     0.766900000000     0.132410000000     0.0309595  
C        C      0.819500000000     0.799000000000     0.153360000000     0.0309595  
C        C      0.867600000000     0.785400000000     0.202230000000     0.0309595  
C        C      0.765700000000     0.737500000000     0.228620000000     0.0309595  
C        C      0.617700000000     0.705500000000     0.207470000000     0.0309595  
C        C      0.106500000000     0.787400000000     0.263460000000     0.0309595  
C        C      0.152700000000     0.713700000000     0.260420000000     0.0309595  
C        C      0.234000000000     0.681500000000     0.300260000000     0.0309595  
C        C      0.269000000000     0.725600000000     0.343230000000     0.0309595  
C        C      0.226700000000     0.800400000000     0.346460000000     0.0309595  
C        C      0.144300000000     0.831700000000     0.306710000000     0.0309595  
C        C      0.344900000000     0.719600000000     0.433350000000     0.0309595  
C        C      0.443900000000     0.626800000000     0.384350000000     0.0309595  
C        C      0.493600000000     0.617400000000     0.431730000000     0.0309595  
C        C      0.073000000000     0.890200000000     0.207140000000     0.0309595  
C        C      0.959900000000     0.950000000000     0.204480000000     0.0309595  
C        C      0.011900000000     0.016100000000     0.184640000000     0.0309595  
C        C      0.179300000000     0.023400000000     0.168370000000     0.0309595  
C        C      0.294900000000     0.966700000000     0.172590000000     0.0309595  
C        C      0.242300000000     0.899200000000     0.191780000000     0.0309595  
C        C      0.171400000000     0.161700000000     0.157860000000     0.0309595  
C        C      0.324000000000     0.094200000000     0.103270000000     0.0309595  
C        C      0.235900000000     0.206800000000     0.123620000000     0.0309595  
C        C      0.528800000000     0.925690000000     0.511920000000     0.0309595  
C        C      0.665300000000     0.974850000000     0.505850000000     0.0309595  
C        C      0.357600000000     0.951200000000     0.506360000000     0.0309595  
C        C      0.570100000000     0.846610000000     0.523930000000     0.0309595  
C        C      0.192400000000     0.905940000000     0.513140000000     0.0309595  
C        C      0.958500000000     0.655890000000     0.473620000000     0.0309595  
C        C      0.976300000000     0.575460000000     0.488620000000     0.0309595  
C        C      0.751100000000     0.590660000000     0.557830000000     0.0309595  
C        C      0.888300000000     0.546330000000     0.528990000000     0.0309595  
C        C      0.085700000000     0.528310000000     0.460540000000     0.0309595  
C        C      0.814300000000     0.280200000000     0.395690000000     0.0309595  
C        C      0.714700000000     0.390800000000     0.385740000000     0.0309595  
C        C      0.854600000000     0.382700000000     0.356620000000     0.0309595  
C        C      0.071100000000     0.279310000000     0.340490000000     0.0309595  
C        C      0.172700000000     0.233100000000     0.367590000000     0.0309595  
C        C      0.319500000000     0.201000000000     0.346640000000     0.0309595  
C        C      0.367600000000     0.214600000000     0.297770000000     0.0309595  
C        C      0.265700000000     0.262500000000     0.271380000000     0.0309595  
C        C      0.117700000000     0.294500000000     0.292530000000     0.0309595  
C        C      0.606500000000     0.212600000000     0.236540000000     0.0309595  
C        C      0.652700000000     0.286300000000     0.239580000000     0.0309595  
C        C      0.734000000000     0.318500000000     0.199740000000     0.0309595  
C        C      0.769000000000     0.274400000000     0.156770000000     0.0309595  
C        C      0.726700000000     0.199600000000     0.153540000000     0.0309595  
C        C      0.644300000000     0.168300000000     0.193290000000     0.0309595  
C        C      0.844900000000     0.280400000000     0.066650000000     0.0309595  
C        C      0.943900000000     0.373200000000     0.115650000000     0.0309595  
C        C      0.993600000000     0.382600000000     0.068270000000     0.0309595  
C        C      0.573000000000     0.109800000000     0.292860000000     0.0309595  
C        C      0.459900000000     0.050000000000     0.295520000000     0.0309595  
C        C      0.511900000000     0.983900000000     0.315360000000     0.0309595  
C        C      0.679300000000     0.976600000000     0.331630000000     0.0309595  
C        C      0.794900000000     0.033300000000     0.327410000000     0.0309595  
C        C      0.742300000000     0.100800000000     0.308220000000     0.0309595  
C        C      0.671400000000     0.838300000000     0.342140000000     0.0309595  
C        C      0.824000000000     0.905800000000     0.396730000000     0.0309595  
C        C      0.735900000000     0.793200000000     0.376380000000     0.0309595  
C        C      0.971200000000     0.925690000000     0.011920000000     0.0309595  
C        C      0.834700000000     0.974850000000     0.005850000000     0.0309595  
C        C      0.142400000000     0.951200000000     0.006360000000     0.0309595  
C        C      0.929900000000     0.846610000000     0.023930000000     0.0309595  
C        C      0.307600000000     0.905940000000     0.013140000000     0.0309595  
C        C      0.541500000000     0.655890000000     0.973620000000     0.0309595  
C        C      0.523700000000     0.575460000000     0.988620000000     0.0309595  
C        C      0.748900000000     0.590660000000     0.057830000000     0.0309595  
C        C      0.611700000000     0.546330000000     0.028990000000     0.0309595  
C        C      0.414300000000     0.528310000000     0.960540000000     0.0309595  
C        C      0.685700000000     0.280200000000     0.895690000000     0.0309595  
C        C      0.785300000000     0.390800000000     0.885740000000     0.0309595  
C        C      0.645400000000     0.382700000000     0.856620000000     0.0309595  
C        C      0.428900000000     0.279310000000     0.840490000000     0.0309595  
C        C      0.327300000000     0.233100000000     0.867590000000     0.0309595  
C        C      0.180500000000     0.201000000000     0.846640000000     0.0309595  
C        C      0.132400000000     0.214600000000     0.797770000000     0.0309595  
C        C      0.234300000000     0.262500000000     0.771380000000     0.0309595  
C        C      0.382300000000     0.294500000000     0.792530000000     0.0309595  
C        C      0.893500000000     0.212600000000     0.736540000000     0.0309595  
C        C      0.847300000000     0.286300000000     0.739580000000     0.0309595  
C        C      0.766000000000     0.318500000000     0.699740000000     0.0309595  
C        C      0.731000000000     0.274400000000     0.656770000000     0.0309595  
C        C      0.773300000000     0.199600000000     0.653540000000     0.0309595  
C        C      0.855700000000     0.168300000000     0.693290000000     0.0309595  
C        C      0.655100000000     0.280400000000     0.566650000000     0.0309595  
C        C      0.556100000000     0.373200000000     0.615650000000     0.0309595  
C        C      0.506400000000     0.382600000000     0.568270000000     0.0309595  
C        C      0.927000000000     0.109800000000     0.792860000000     0.0309595  
C        C      0.040100000000     0.050000000000     0.795520000000     0.0309595  
C        C      0.988100000000     0.983900000000     0.815360000000     0.0309595  
C        C      0.820700000000     0.976600000000     0.831630000000     0.0309595  
C        C      0.705100000000     0.033300000000     0.827410000000     0.0309595  
C        C      0.757700000000     0.100800000000     0.808220000000     0.0309595  
C        C      0.828600000000     0.838300000000     0.842140000000     0.0309595  
C        C      0.676000000000     0.905800000000     0.896730000000     0.0309595  
C        C      0.764100000000     0.793200000000     0.876380000000     0.0309595  
C        C      0.471200000000     0.074310000000     0.488080000000     0.0309595  
C        C      0.334700000000     0.025150000000     0.494150000000     0.0309595  
C        C      0.642400000000     0.048800000000     0.493640000000     0.0309595  
C        C      0.429900000000     0.153390000000     0.476070000000     0.0309595  
C        C      0.807600000000     0.094060000000     0.486860000000     0.0309595  
C        C      0.041500000000     0.344110000000     0.526380000000     0.0309595  
C        C      0.023700000000     0.424540000000     0.511380000000     0.0309595  
C        C      0.248900000000     0.409340000000     0.442170000000     0.0309595  
C        C      0.111700000000     0.453670000000     0.471010000000     0.0309595  
C        C      0.914300000000     0.471690000000     0.539460000000     0.0309595  
C        C      0.185700000000     0.719800000000     0.604310000000     0.0309595  
C        C      0.285300000000     0.609200000000     0.614260000000     0.0309595  
C        C      0.145400000000     0.617300000000     0.643380000000     0.0309595  
C        C      0.928900000000     0.720690000000     0.659510000000     0.0309595  
C        C      0.827300000000     0.766900000000     0.632410000000     0.0309595  
C        C      0.680500000000     0.799000000000     0.653360000000     0.0309595  
C        C      0.632400000000     0.785400000000     0.702230000000     0.0309595  
C        C      0.734300000000     0.737500000000     0.728620000000     0.0309595  
C        C      0.882300000000     0.705500000000     0.707470000000     0.0309595  
C        C      0.393500000000     0.787400000000     0.763460000000     0.0309595  
C        C      0.347300000000     0.713700000000     0.760420000000     0.0309595  
C        C      0.266000000000     0.681500000000     0.800260000000     0.0309595  
C        C      0.231000000000     0.725600000000     0.843230000000     0.0309595  
C        C      0.273300000000     0.800400000000     0.846460000000     0.0309595  
C        C      0.355700000000     0.831700000000     0.806710000000     0.0309595  
C        C      0.155100000000     0.719600000000     0.933350000000     0.0309595  
C        C      0.056100000000     0.626800000000     0.884350000000     0.0309595  
C        C      0.006400000000     0.617400000000     0.931730000000     0.0309595  
C        C      0.427000000000     0.890200000000     0.707140000000     0.0309595  
C        C      0.540100000000     0.950000000000     0.704480000000     0.0309595  
C        C      0.488100000000     0.016100000000     0.684640000000     0.0309595  
C        C      0.320700000000     0.023400000000     0.668370000000     0.0309595  
C        C      0.205100000000     0.966700000000     0.672590000000     0.0309595  
C        C      0.257700000000     0.899200000000     0.691780000000     0.0309595  
C        C      0.328600000000     0.161700000000     0.657860000000     0.0309595  
C        C      0.176000000000     0.094200000000     0.603270000000     0.0309595  
C        C      0.264100000000     0.206800000000     0.623620000000     0.0309595  
N        N      0.015200000000     0.820640000000     0.223840000000    -0.149408   
N        N      0.188800000000     0.673760000000     0.089540000000    -0.149408   
N        N      0.419100000000     0.687870000000     0.137250000000    -0.149408   
N        N      0.349900000000     0.692070000000     0.385080000000    -0.149408   
N        N      0.429400000000     0.675290000000     0.462630000000    -0.149408   
N        N      0.227900000000     0.090780000000     0.144930000000    -0.149408   
N        N      0.332000000000     0.164480000000     0.089010000000    -0.149408   
N        N      0.515200000000     0.179360000000     0.276160000000    -0.149408   
N        N      0.688800000000     0.326240000000     0.410460000000    -0.149408   
N        N      0.919100000000     0.312130000000     0.362750000000    -0.149408   
N        N      0.849900000000     0.307930000000     0.114920000000    -0.149408   
N        N      0.929400000000     0.324710000000     0.037370000000    -0.149408   
N        N      0.727900000000     0.909220000000     0.355070000000    -0.149408   
N        N      0.832000000000     0.835520000000     0.410990000000    -0.149408   
N        N      0.984800000000     0.179360000000     0.776160000000    -0.149408   
N        N      0.811200000000     0.326240000000     0.910460000000    -0.149408   
N        N      0.580900000000     0.312130000000     0.862750000000    -0.149408   
N        N      0.650100000000     0.307930000000     0.614920000000    -0.149408   
N        N      0.570600000000     0.324710000000     0.537370000000    -0.149408   
N        N      0.772100000000     0.909220000000     0.855070000000    -0.149408   
N        N      0.668000000000     0.835520000000     0.910990000000    -0.149408   
N        N      0.484800000000     0.820640000000     0.723840000000    -0.149408   
N        N      0.311200000000     0.673760000000     0.589540000000    -0.149408   
N        N      0.080900000000     0.687870000000     0.637250000000    -0.149408   
N        N      0.150100000000     0.692070000000     0.885080000000    -0.149408   
N        N      0.070600000000     0.675290000000     0.962630000000    -0.149408   
N        N      0.272100000000     0.090780000000     0.644930000000    -0.149408   
N        N      0.168000000000     0.164480000000     0.589010000000    -0.149408   
O        O      0.220600000000     0.177660000000     0.980410000000    -0.280723   
O        O      0.946100000000     0.192700000000     0.961020000000    -0.280723   
O        O      0.611800000000     0.084650000000     0.947940000000    -0.280723   
O        O      0.644000000000     0.134690000000     0.025090000000    -0.280723   
O        O      0.501100000000     0.290900000000     0.995010000000    -0.280723   
O        O      0.412700000000     0.332900000000     0.069240000000    -0.280723   
O        O      0.187300000000     0.357190000000     0.965640000000    -0.280723   
O        O      0.205800000000     0.426520000000     0.900540000000    -0.280723   
O        O      0.720600000000     0.822340000000     0.519590000000    -0.280723   
O        O      0.446100000000     0.807300000000     0.538980000000    -0.280723   
O        O      0.111800000000     0.915350000000     0.552060000000    -0.280723   
O        O      0.144000000000     0.865310000000     0.474910000000    -0.280723   
O        O      0.001100000000     0.709100000000     0.504990000000    -0.280723   
O        O      0.912700000000     0.667100000000     0.430760000000    -0.280723   
O        O      0.687300000000     0.642810000000     0.534360000000    -0.280723   
O        O      0.705800000000     0.573480000000     0.599460000000    -0.280723   
O        O      0.779400000000     0.822340000000     0.019590000000    -0.280723   
O        O      0.053900000000     0.807300000000     0.038980000000    -0.280723   
O        O      0.388200000000     0.915350000000     0.052060000000    -0.280723   
O        O      0.356000000000     0.865310000000     0.974910000000    -0.280723   
O        O      0.498900000000     0.709100000000     0.004990000000    -0.280723   
O        O      0.587300000000     0.667100000000     0.930760000000    -0.280723   
O        O      0.812700000000     0.642810000000     0.034360000000    -0.280723   
O        O      0.794200000000     0.573480000000     0.099460000000    -0.280723   
O        O      0.279400000000     0.177660000000     0.480410000000    -0.280723   
O        O      0.553900000000     0.192700000000     0.461020000000    -0.280723   
O        O      0.888200000000     0.084650000000     0.447940000000    -0.280723   
O        O      0.856000000000     0.134690000000     0.525090000000    -0.280723   
O        O      0.998900000000     0.290900000000     0.495010000000    -0.280723   
O        O      0.087300000000     0.332900000000     0.569240000000    -0.280723   
O        O      0.312700000000     0.357190000000     0.465640000000    -0.280723   
O        O      0.294200000000     0.426520000000     0.400540000000    -0.280723   


