data_ICALOP_original

_audit_creation_method RASPA-1.0
_audit_creation_date 2022-1-30
_audit_author_name 'Felipe Lopes de Oliveira <felipe.lopes.oliveira@ibm.com>'

_cell_length_a    9.906
_cell_length_b    17.379
_cell_length_c    22.043
_cell_angle_alpha 90
_cell_angle_beta  90
_cell_angle_gamma 90
_cell_volume      3794.84

_symmetry_cell_setting          triclinic
_symmetry_space_group_name_Hall 'P 1'
_symmetry_space_group_name_H-M  'P 1'
_symmetry_Int_Tables_number     1

_symmetry_equiv_pos_as_xyz 'x,y,z'

loop_
_atom_site_label
_atom_site_type_symbol
_atom_site_fract_x
_atom_site_fract_y
_atom_site_fract_z
_atom_site_charge
In       In     0.750000000000     0.584690000000     0.328180000000     2.41716    
In       In     0.250000000000     0.915310000000     0.828180000000     2.41716    
In       In     0.250000000000     0.415310000000     0.671820000000     2.41716    
In       In     0.750000000000     0.084690000000     0.171820000000     2.41716    
H        H      0.546300000000     0.274700000000     0.550600000000     0.0909042  
H        H      0.830800000000     0.174500000000     0.497200000000     0.0909042  
H        H      0.453700000000     0.225300000000     0.050600000000     0.0909042  
H        H      0.169200000000     0.325500000000     0.997200000000     0.0909042  
H        H      0.046300000000     0.725300000000     0.449400000000     0.0909042  
H        H      0.330800000000     0.825500000000     0.502800000000     0.0909042  
H        H      0.953700000000     0.774700000000     0.949400000000     0.0909042  
H        H      0.669200000000     0.674500000000     0.002800000000     0.0909042  
H        H      0.453700000000     0.725300000000     0.449400000000     0.0909042  
H        H      0.169200000000     0.825500000000     0.502800000000     0.0909042  
H        H      0.546300000000     0.774700000000     0.949400000000     0.0909042  
H        H      0.830800000000     0.674500000000     0.002800000000     0.0909042  
H        H      0.953700000000     0.274700000000     0.550600000000     0.0909042  
H        H      0.669200000000     0.174500000000     0.497200000000     0.0909042  
H        H      0.046300000000     0.225300000000     0.050600000000     0.0909042  
H        H      0.330800000000     0.325500000000     0.997200000000     0.0909042  
H        H      0.750000000000     0.354000000000     0.456300000000     0.0909042  
H        H      0.750000000000     0.141200000000     0.384700000000     0.0909042  
H        H      0.750000000000     0.323400000000     0.273200000000     0.0909042  
H        H      0.750000000000     0.418000000000     0.671000000000     0.0909042  
H        H      0.250000000000     0.146000000000     0.956300000000     0.0909042  
H        H      0.250000000000     0.358800000000     0.884700000000     0.0909042  
H        H      0.250000000000     0.176600000000     0.773200000000     0.0909042  
H        H      0.250000000000     0.082000000000     0.171000000000     0.0909042  
H        H      0.250000000000     0.646000000000     0.543700000000     0.0909042  
H        H      0.250000000000     0.858800000000     0.615300000000     0.0909042  
H        H      0.250000000000     0.676600000000     0.726800000000     0.0909042  
H        H      0.250000000000     0.582000000000     0.329000000000     0.0909042  
H        H      0.750000000000     0.854000000000     0.043700000000     0.0909042  
H        H      0.750000000000     0.641200000000     0.115300000000     0.0909042  
H        H      0.750000000000     0.823400000000     0.226800000000     0.0909042  
H        H      0.750000000000     0.918000000000     0.829000000000     0.0909042  
C        C      0.627300000000     0.350900000000     0.612800000000     0.0390867  
C        C      0.497100000000     0.378400000000     0.633700000000     0.0390867  
C        C      0.628600000000     0.294200000000     0.566500000000     0.0390867  
C        C      0.372700000000     0.149100000000     0.112800000000     0.0390867  
C        C      0.502900000000     0.121600000000     0.133700000000     0.0390867  
C        C      0.371400000000     0.205800000000     0.066500000000     0.0390867  
C        C      0.127300000000     0.649100000000     0.387200000000     0.0390867  
C        C      0.997100000000     0.621600000000     0.366300000000     0.0390867  
C        C      0.128600000000     0.705800000000     0.433500000000     0.0390867  
C        C      0.872700000000     0.850900000000     0.887200000000     0.0390867  
C        C      0.002900000000     0.878400000000     0.866300000000     0.0390867  
C        C      0.871400000000     0.794200000000     0.933500000000     0.0390867  
C        C      0.372700000000     0.649100000000     0.387200000000     0.0390867  
C        C      0.502900000000     0.621600000000     0.366300000000     0.0390867  
C        C      0.371400000000     0.705800000000     0.433500000000     0.0390867  
C        C      0.627300000000     0.850900000000     0.887200000000     0.0390867  
C        C      0.497100000000     0.878400000000     0.866300000000     0.0390867  
C        C      0.628600000000     0.794200000000     0.933500000000     0.0390867  
C        C      0.872700000000     0.350900000000     0.612800000000     0.0390867  
C        C      0.002900000000     0.378400000000     0.633700000000     0.0390867  
C        C      0.871400000000     0.294200000000     0.566500000000     0.0390867  
C        C      0.127300000000     0.149100000000     0.112800000000     0.0390867  
C        C      0.997100000000     0.121600000000     0.133700000000     0.0390867  
C        C      0.128600000000     0.205800000000     0.066500000000     0.0390867  
C        C      0.750000000000     0.353600000000     0.363200000000     0.0390867  
C        C      0.750000000000     0.243900000000     0.430900000000     0.0390867  
C        C      0.750000000000     0.227300000000     0.321400000000     0.0390867  
C        C      0.750000000000     0.438200000000     0.353800000000     0.0390867  
C        C      0.750000000000     0.376900000000     0.634800000000     0.0390867  
C        C      0.750000000000     0.320900000000     0.422000000000     0.0390867  
C        C      0.750000000000     0.173500000000     0.267500000000     0.0390867  
C        C      0.750000000000     0.195500000000     0.379700000000     0.0390867  
C        C      0.750000000000     0.303100000000     0.313200000000     0.0390867  
C        C      0.750000000000     0.267900000000     0.544900000000     0.0390867  
C        C      0.750000000000     0.207600000000     0.493100000000     0.0390867  
C        C      0.250000000000     0.146400000000     0.863200000000     0.0390867  
C        C      0.250000000000     0.256100000000     0.930900000000     0.0390867  
C        C      0.250000000000     0.272700000000     0.821400000000     0.0390867  
C        C      0.250000000000     0.061800000000     0.853800000000     0.0390867  
C        C      0.250000000000     0.123100000000     0.134800000000     0.0390867  
C        C      0.250000000000     0.179100000000     0.922000000000     0.0390867  
C        C      0.250000000000     0.326500000000     0.767500000000     0.0390867  
C        C      0.250000000000     0.304500000000     0.879700000000     0.0390867  
C        C      0.250000000000     0.196900000000     0.813200000000     0.0390867  
C        C      0.250000000000     0.232100000000     0.044900000000     0.0390867  
C        C      0.250000000000     0.292400000000     0.993100000000     0.0390867  
C        C      0.250000000000     0.646400000000     0.636800000000     0.0390867  
C        C      0.250000000000     0.756100000000     0.569100000000     0.0390867  
C        C      0.250000000000     0.772700000000     0.678600000000     0.0390867  
C        C      0.250000000000     0.561800000000     0.646200000000     0.0390867  
C        C      0.250000000000     0.623100000000     0.365200000000     0.0390867  
C        C      0.250000000000     0.679100000000     0.578000000000     0.0390867  
C        C      0.250000000000     0.826500000000     0.732500000000     0.0390867  
C        C      0.250000000000     0.804500000000     0.620300000000     0.0390867  
C        C      0.250000000000     0.696900000000     0.686800000000     0.0390867  
C        C      0.250000000000     0.732100000000     0.455100000000     0.0390867  
C        C      0.250000000000     0.792400000000     0.506900000000     0.0390867  
C        C      0.750000000000     0.853600000000     0.136800000000     0.0390867  
C        C      0.750000000000     0.743900000000     0.069100000000     0.0390867  
C        C      0.750000000000     0.727300000000     0.178600000000     0.0390867  
C        C      0.750000000000     0.938200000000     0.146200000000     0.0390867  
C        C      0.750000000000     0.876900000000     0.865200000000     0.0390867  
C        C      0.750000000000     0.820900000000     0.078000000000     0.0390867  
C        C      0.750000000000     0.673500000000     0.232500000000     0.0390867  
C        C      0.750000000000     0.695500000000     0.120300000000     0.0390867  
C        C      0.750000000000     0.803100000000     0.186800000000     0.0390867  
C        C      0.750000000000     0.767900000000     0.955100000000     0.0390867  
C        C      0.750000000000     0.707600000000     0.006900000000     0.0390867  
O        O      0.487700000000     0.419000000000     0.680470000000    -0.476109   
O        O      0.389300000000     0.360600000000     0.605280000000    -0.476109   
O        O      0.512300000000     0.081000000000     0.180470000000    -0.476109   
O        O      0.610700000000     0.139400000000     0.105280000000    -0.476109   
O        O      0.987700000000     0.581000000000     0.319530000000    -0.476109   
O        O      0.889300000000     0.639400000000     0.394720000000    -0.476109   
O        O      0.012300000000     0.919000000000     0.819530000000    -0.476109   
O        O      0.110700000000     0.860600000000     0.894720000000    -0.476109   
O        O      0.512300000000     0.581000000000     0.319530000000    -0.476109   
O        O      0.610700000000     0.639400000000     0.394720000000    -0.476109   
O        O      0.487700000000     0.919000000000     0.819530000000    -0.476109   
O        O      0.389300000000     0.860600000000     0.894720000000    -0.476109   
O        O      0.012300000000     0.419000000000     0.680470000000    -0.476109   
O        O      0.110700000000     0.360600000000     0.605280000000    -0.476109   
O        O      0.987700000000     0.081000000000     0.180470000000    -0.476109   
O        O      0.889300000000     0.139400000000     0.105280000000    -0.476109   
O        O      0.750000000000     0.101600000000     0.274000000000    -0.476109   
O        O      0.750000000000     0.482300000000     0.398300000000    -0.476109   
O        O      0.750000000000     0.463900000000     0.300300000000    -0.476109   
O        O      0.750000000000     0.201500000000     0.215300000000    -0.476109   
O        O      0.250000000000     0.398400000000     0.774000000000    -0.476109   
O        O      0.250000000000     0.017700000000     0.898300000000    -0.476109   
O        O      0.250000000000     0.036100000000     0.800300000000    -0.476109   
O        O      0.250000000000     0.298500000000     0.715300000000    -0.476109   
O        O      0.250000000000     0.898400000000     0.726000000000    -0.476109   
O        O      0.250000000000     0.517700000000     0.601700000000    -0.476109   
O        O      0.250000000000     0.536100000000     0.699700000000    -0.476109   
O        O      0.250000000000     0.798500000000     0.784700000000    -0.476109   
O        O      0.750000000000     0.601600000000     0.226000000000    -0.476109   
O        O      0.750000000000     0.982300000000     0.101700000000    -0.476109   
O        O      0.750000000000     0.963900000000     0.199700000000    -0.476109   
O        O      0.750000000000     0.701500000000     0.284700000000    -0.476109   


