data_IFEPUG_original

_audit_creation_method RASPA-1.0
_audit_creation_date 2022-1-30
_audit_author_name 'Felipe Lopes de Oliveira <felipe.lopes.oliveira@ibm.com>'

_cell_length_a    5.0662
_cell_length_b    19.0994
_cell_length_c    19.0994
_cell_angle_alpha 88.9921
_cell_angle_beta  82.3786
_cell_angle_gamma 82.3786
_cell_volume      1815.58

_symmetry_cell_setting          triclinic
_symmetry_space_group_name_Hall 'P 1'
_symmetry_space_group_name_H-M  'P 1'
_symmetry_Int_Tables_number     1

_symmetry_equiv_pos_as_xyz 'x,y,z'

loop_
_atom_site_label
_atom_site_type_symbol
_atom_site_fract_x
_atom_site_fract_y
_atom_site_fract_z
_atom_site_charge
Zn       Zn     0.520930000000     0.983860000000     0.557700000000     0.440727   
Zn       Zn     0.062490000000     0.016140000000     0.442300000000     0.440727   
Zn       Zn     0.921370000000     0.557700000000     0.016140000000     0.440727   
Zn       Zn     0.495210000000     0.442300000000     0.983860000000     0.440727   
H        H      0.265800000000     0.898900000000     0.685700000000     0.0567972  
H        H      0.022100000000     0.867500000000     0.507300000000     0.0567972  
H        H      0.434500000000     0.794200000000     0.449400000000     0.0567972  
H        H      0.723700000000     0.688300000000     0.439900000000     0.0567972  
H        H      0.623100000000     0.591900000000     0.513300000000     0.0567972  
H        H      0.252900000000     0.602000000000     0.597200000000     0.0567972  
H        H      0.852100000000     0.675500000000     0.662100000000     0.0567972  
H        H      0.008300000000     0.815200000000     0.739800000000     0.0567972  
H        H      0.806600000000     0.758600000000     0.839600000000     0.0567972  
H        H      0.529900000000     0.654900000000     0.870100000000     0.0567972  
H        H      0.732900000000     0.713700000000     0.772900000000     0.0567972  
H        H      0.850400000000     0.101100000000     0.314300000000     0.0567972  
H        H      0.396900000000     0.132500000000     0.492700000000     0.0567972  
H        H      0.678100000000     0.205800000000     0.550600000000     0.0567972  
H        H      0.851900000000     0.311700000000     0.560100000000     0.0567972  
H        H      0.728300000000     0.408100000000     0.486700000000     0.0567972  
H        H      0.452100000000     0.398000000000     0.402800000000     0.0567972  
H        H      0.189700000000     0.324500000000     0.337900000000     0.0567972  
H        H      0.563300000000     0.184800000000     0.260200000000     0.0567972  
H        H      0.404800000000     0.241400000000     0.160400000000     0.0567972  
H        H      0.054900000000     0.345100000000     0.129900000000     0.0567972  
H        H      0.219500000000     0.286300000000     0.227100000000     0.0567972  
H        H      0.048500000000     0.685700000000     0.101100000000     0.0567972  
H        H      0.470600000000     0.507300000000     0.132500000000     0.0567972  
H        H      0.116100000000     0.449400000000     0.205800000000     0.0567972  
H        H      0.836400000000     0.439900000000     0.311700000000     0.0567972  
H        H      0.863600000000     0.513300000000     0.408100000000     0.0567972  
H        H      0.149900000000     0.597200000000     0.398000000000     0.0567972  
H        H      0.485800000000     0.662100000000     0.324500000000     0.0567972  
H        H      0.251900000000     0.739800000000     0.184800000000     0.0567972  
H        H      0.353800000000     0.839600000000     0.241400000000     0.0567972  
H        H      0.600000000000     0.870100000000     0.345100000000     0.0567972  
H        H      0.494200000000     0.772900000000     0.286300000000     0.0567972  
H        H      0.835300000000     0.314300000000     0.898900000000     0.0567972  
H        H      0.110400000000     0.492700000000     0.867500000000     0.0567972  
H        H      0.771300000000     0.550600000000     0.794200000000     0.0567972  
H        H      0.588000000000     0.560100000000     0.688300000000     0.0567972  
H        H      0.785000000000     0.486700000000     0.591900000000     0.0567972  
H        H      0.145100000000     0.402800000000     0.602000000000     0.0567972  
H        H      0.472400000000     0.337900000000     0.675500000000     0.0567972  
H        H      0.176500000000     0.260200000000     0.815200000000     0.0567972  
H        H      0.434800000000     0.160400000000     0.758600000000     0.0567972  
H        H      0.815200000000     0.129900000000     0.654900000000     0.0567972  
H        H      0.553400000000     0.227100000000     0.713700000000     0.0567972  
C        C      0.418070000000     0.869910000000     0.662550000000     0.00134043 
C        C      0.773640000000     0.833680000000     0.589840000000     0.00134043 
C        C      0.990500000000     0.828830000000     0.537770000000     0.00134043 
C        C      0.164580000000     0.764490000000     0.531150000000     0.00134043 
C        C      0.396140000000     0.755960000000     0.479960000000     0.00134043 
C        C      0.567240000000     0.692930000000     0.473790000000     0.00134043 
C        C      0.507500000000     0.635460000000     0.518340000000     0.00134043 
C        C      0.288270000000     0.641360000000     0.568100000000     0.00134043 
C        C      0.109500000000     0.706170000000     0.577430000000     0.00134043 
C        C      0.888460000000     0.713400000000     0.630880000000     0.00134043 
C        C      0.726700000000     0.777410000000     0.636390000000     0.00134043 
C        C      0.381790000000     0.769560000000     0.745660000000     0.00134043 
C        C      0.163210000000     0.705710000000     0.866670000000     0.00134043 
C        C      0.034510000000     0.670900000000     0.931280000000     0.00134043 
C        C      0.116000000000     0.783200000000     0.766200000000     0.00134043 
C        C      0.995600000000     0.750700000000     0.826300000000     0.00134043 
C        C      0.425100000000     0.689200000000     0.845200000000     0.00134043 
C        C      0.544000000000     0.722400000000     0.786200000000     0.00134043 
C        C      0.950530000000     0.130090000000     0.337450000000     0.00134043 
C        C      0.197160000000     0.166320000000     0.410160000000     0.00134043 
C        C      0.357100000000     0.171170000000     0.462230000000     0.00134043 
C        C      0.460220000000     0.235510000000     0.468850000000     0.00134043 
C        C      0.632060000000     0.244040000000     0.520040000000     0.00134043 
C        C      0.733960000000     0.307070000000     0.526210000000     0.00134043 
C        C      0.661300000000     0.364540000000     0.481660000000     0.00134043 
C        C      0.497730000000     0.358640000000     0.431900000000     0.00134043 
C        C      0.393100000000     0.293830000000     0.422570000000     0.00134043 
C        C      0.232740000000     0.286600000000     0.369120000000     0.00134043 
C        C      0.140500000000     0.222590000000     0.363610000000     0.00134043 
C        C      0.897010000000     0.230440000000     0.254340000000     0.00134043 
C        C      0.735590000000     0.294290000000     0.133330000000     0.00134043 
C        C      0.636690000000     0.329100000000     0.068720000000     0.00134043 
C        C      0.665400000000     0.216800000000     0.233800000000     0.00134043 
C        C      0.572600000000     0.249300000000     0.173700000000     0.00134043 
C        C      0.959500000000     0.310800000000     0.154800000000     0.00134043 
C        C      0.052600000000     0.277600000000     0.213800000000     0.00134043 
C        C      0.919380000000     0.662550000000     0.130090000000     0.00134043 
C        C      0.636520000000     0.589840000000     0.166320000000     0.00134043 
C        C      0.471730000000     0.537770000000     0.171170000000     0.00134043 
C        C      0.304270000000     0.531150000000     0.235510000000     0.00134043 
C        C      0.123900000000     0.479960000000     0.244040000000     0.00134043 
C        C      0.958970000000     0.473790000000     0.307070000000     0.00134043 
C        C      0.974160000000     0.518340000000     0.364540000000     0.00134043 
C        C      0.143630000000     0.568100000000     0.358640000000     0.00134043 
C        C      0.313070000000     0.577430000000     0.293830000000     0.00134043 
C        C      0.480660000000     0.630880000000     0.286600000000     0.00134043 
C        C      0.636910000000     0.636390000000     0.222590000000     0.00134043 
C        C      0.872550000000     0.745660000000     0.230440000000     0.00134043 
C        C      0.970120000000     0.866670000000     0.294290000000     0.00134043 
C        C      0.034210000000     0.931280000000     0.329100000000     0.00134043 
C        C      0.117800000000     0.766200000000     0.216800000000     0.00134043 
C        C      0.178100000000     0.826300000000     0.249300000000     0.00134043 
C        C      0.729700000000     0.845200000000     0.310800000000     0.00134043 
C        C      0.669800000000     0.786200000000     0.277600000000     0.00134043 
C        C      0.712020000000     0.337450000000     0.869910000000     0.00134043 
C        C      0.392680000000     0.410160000000     0.833680000000     0.00134043 
C        C      0.180670000000     0.462230000000     0.828830000000     0.00134043 
C        C      0.070930000000     0.468850000000     0.764490000000     0.00134043 
C        C      0.847900000000     0.520040000000     0.755960000000     0.00134043 
C        C      0.739830000000     0.526210000000     0.692930000000     0.00134043 
C        C      0.857040000000     0.481660000000     0.635460000000     0.00134043 
C        C      0.070370000000     0.431900000000     0.641360000000     0.00134043 
C        C      0.184330000000     0.422570000000     0.706170000000     0.00134043 
C        C      0.398140000000     0.369120000000     0.713400000000     0.00134043 
C        C      0.495890000000     0.363610000000     0.777410000000     0.00134043 
C        C      0.848650000000     0.254340000000     0.769560000000     0.00134043 
C        C      0.131080000000     0.133330000000     0.705710000000     0.00134043 
C        C      0.294590000000     0.068720000000     0.670900000000     0.00134043 
C        C      0.100800000000     0.233800000000     0.783200000000     0.00134043 
C        C      0.253700000000     0.173700000000     0.750700000000     0.00134043 
C        C      0.885700000000     0.154800000000     0.689200000000     0.00134043 
C        C      0.733600000000     0.213800000000     0.722400000000     0.00134043 
N        N      0.572250000000     0.890630000000     0.607670000000    -0.165374   
N        N      0.497870000000     0.802840000000     0.683020000000    -0.165374   
N        N      0.070550000000     0.109370000000     0.392330000000    -0.165374   
N        N      0.983730000000     0.197160000000     0.316980000000    -0.165374   
N        N      0.820080000000     0.607670000000     0.109370000000    -0.165374   
N        N      0.819110000000     0.683020000000     0.197160000000    -0.165374   
N        N      0.537120000000     0.392330000000     0.890630000000    -0.165374   
N        N      0.699290000000     0.316980000000     0.802840000000    -0.165374   
O        O      0.395050000000     0.969650000000     0.468050000000    -0.252959   
O        O      0.145650000000     0.612110000000     0.948790000000    -0.252959   
O        O      0.772700000000     0.685200000000     0.948200000000    -0.252959   
O        O      0.832750000000     0.030350000000     0.531950000000    -0.252959   
O        O      0.706550000000     0.387890000000     0.051210000000    -0.252959   
O        O      0.406100000000     0.314800000000     0.051800000000    -0.252959   
O        O      0.136900000000     0.468050000000     0.030350000000    -0.252959   
O        O      0.905560000000     0.948790000000     0.387890000000    -0.252959   
O        O      0.279100000000     0.948200000000     0.314800000000    -0.252959   
O        O      0.635300000000     0.531950000000     0.969650000000    -0.252959   
O        O      0.242240000000     0.051210000000     0.612110000000    -0.252959   
O        O      0.542100000000     0.051800000000     0.685200000000    -0.252959   


