data_IFEQAN_original

_audit_creation_method RASPA-1.0
_audit_creation_date 2022-1-31
_audit_author_name 'Felipe Lopes de Oliveira <felipe.lopes.oliveira@ibm.com>'

_cell_length_a    5.0883
_cell_length_b    19.0595
_cell_length_c    19.0595
_cell_angle_alpha 88.9791
_cell_angle_beta  82.3293
_cell_angle_gamma 82.329
_cell_volume      1815.47

_symmetry_cell_setting          triclinic
_symmetry_space_group_name_Hall 'P 1'
_symmetry_space_group_name_H-M  'P 1'
_symmetry_Int_Tables_number     1

_symmetry_equiv_pos_as_xyz 'x,y,z'

loop_
_atom_site_label
_atom_site_type_symbol
_atom_site_fract_x
_atom_site_fract_y
_atom_site_fract_z
_atom_site_charge
Zn       Zn     0.470400000000     0.442390000000     0.015790000000     0.440292   
Zn       Zn     0.928580000000     0.557610000000     0.984210000000     0.440292   
Zn       Zn     0.087210000000     0.984210000000     0.442390000000     0.440292   
Zn       Zn     0.513810000000     0.015790000000     0.557610000000     0.440292   
H        H      0.734500000000     0.314800000000     0.100600000000     0.0570244  
H        H      0.973600000000     0.491700000000     0.132300000000     0.0570244  
H        H      0.560700000000     0.549500000000     0.206100000000     0.0570244  
H        H      0.281900000000     0.560200000000     0.313200000000     0.0570244  
H        H      0.377300000000     0.484600000000     0.408600000000     0.0570244  
H        H      0.752500000000     0.402300000000     0.399100000000     0.0570244  
H        H      0.147600000000     0.337700000000     0.325500000000     0.0570244  
H        H      0.994800000000     0.260400000000     0.183400000000     0.0570244  
H        H      0.197900000000     0.160700000000     0.239500000000     0.0570244  
H        H      0.477000000000     0.129500000000     0.343500000000     0.0570244  
H        H      0.271300000000     0.226000000000     0.285400000000     0.0570244  
H        H      0.149900000000     0.685200000000     0.899400000000     0.0570244  
H        H      0.597600000000     0.508300000000     0.867700000000     0.0570244  
H        H      0.316300000000     0.450500000000     0.793900000000     0.0570244  
H        H      0.155300000000     0.439800000000     0.686800000000     0.0570244  
H        H      0.270500000000     0.515400000000     0.591400000000     0.0570244  
H        H      0.553900000000     0.597700000000     0.600900000000     0.0570244  
H        H      0.810800000000     0.662300000000     0.674500000000     0.0570244  
H        H      0.438600000000     0.739600000000     0.816600000000     0.0570244  
H        H      0.598100000000     0.839300000000     0.760500000000     0.0570244  
H        H      0.950000000000     0.870500000000     0.656500000000     0.0570244  
H        H      0.782700000000     0.774000000000     0.714600000000     0.0570244  
H        H      0.950700000000     0.899400000000     0.314800000000     0.0570244  
H        H      0.534700000000     0.867700000000     0.491700000000     0.0570244  
H        H      0.889800000000     0.793900000000     0.549500000000     0.0570244  
H        H      0.157900000000     0.686800000000     0.560200000000     0.0570244  
H        H      0.138100000000     0.591400000000     0.484600000000     0.0570244  
H        H      0.845200000000     0.600900000000     0.402300000000     0.0570244  
H        H      0.514700000000     0.674500000000     0.337700000000     0.0570244  
H        H      0.744800000000     0.816600000000     0.260400000000     0.0570244  
H        H      0.641400000000     0.760500000000     0.160700000000     0.0570244  
H        H      0.393500000000     0.656500000000     0.129500000000     0.0570244  
H        H      0.502700000000     0.714600000000     0.226000000000     0.0570244  
H        H      0.164900000000     0.100600000000     0.685200000000     0.0570244  
H        H      0.894100000000     0.132300000000     0.508300000000     0.0570244  
H        H      0.233200000000     0.206100000000     0.450500000000     0.0570244  
H        H      0.404900000000     0.313200000000     0.439800000000     0.0570244  
H        H      0.214100000000     0.408600000000     0.515400000000     0.0570244  
H        H      0.848400000000     0.399100000000     0.597700000000     0.0570244  
H        H      0.526900000000     0.325500000000     0.662300000000     0.0570244  
H        H      0.821800000000     0.183400000000     0.739600000000     0.0570244  
H        H      0.562600000000     0.239500000000     0.839300000000     0.0570244  
H        H      0.179500000000     0.343500000000     0.870500000000     0.0570244  
H        H      0.443300000000     0.285400000000     0.774000000000     0.0570244  
C        C      0.581470000000     0.337360000000     0.129700000000     0.00133575 
C        C      0.221860000000     0.410450000000     0.166430000000     0.00133575 
C        C      0.007270000000     0.461470000000     0.171190000000     0.00133575 
C        C      0.836340000000     0.468120000000     0.235800000000     0.00133575 
C        C      0.602040000000     0.519390000000     0.244530000000     0.00133575 
C        C      0.435900000000     0.525600000000     0.307800000000     0.00133575 
C        C      0.494430000000     0.480250000000     0.365290000000     0.00133575 
C        C      0.714230000000     0.430880000000     0.359460000000     0.00133575 
C        C      0.889080000000     0.421450000000     0.293990000000     0.00133575 
C        C      0.110570000000     0.368520000000     0.287340000000     0.00133575 
C        C      0.272440000000     0.363040000000     0.223080000000     0.00133575 
C        C      0.619890000000     0.254400000000     0.230620000000     0.00133575 
C        C      0.846180000000     0.134500000000     0.294940000000     0.00133575 
C        C      0.978730000000     0.070110000000     0.329430000000     0.00133575 
C        C      0.889200000000     0.233900000000     0.215900000000     0.00133575 
C        C      0.009900000000     0.174400000000     0.248400000000     0.00133575 
C        C      0.581400000000     0.155300000000     0.309900000000     0.00133575 
C        C      0.459700000000     0.213500000000     0.277100000000     0.00133575 
C        C      0.048530000000     0.662640000000     0.870300000000     0.00133575 
C        C      0.798740000000     0.589550000000     0.833570000000     0.00133575 
C        C      0.639930000000     0.538530000000     0.828810000000     0.00133575 
C        C      0.540260000000     0.531880000000     0.764200000000     0.00133575 
C        C      0.365960000000     0.480610000000     0.755470000000     0.00133575 
C        C      0.269300000000     0.474400000000     0.692200000000     0.00133575 
C        C      0.339970000000     0.519750000000     0.634710000000     0.00133575 
C        C      0.504570000000     0.569120000000     0.640540000000     0.00133575 
C        C      0.604520000000     0.578550000000     0.706010000000     0.00133575 
C        C      0.766430000000     0.631480000000     0.712660000000     0.00133575 
C        C      0.858560000000     0.636960000000     0.776920000000     0.00133575 
C        C      0.104910000000     0.745600000000     0.769380000000     0.00133575 
C        C      0.275620000000     0.865500000000     0.705060000000     0.00133575 
C        C      0.378270000000     0.929890000000     0.670570000000     0.00133575 
C        C      0.339000000000     0.766100000000     0.784100000000     0.00133575 
C        C      0.432700000000     0.825600000000     0.751600000000     0.00133575 
C        C      0.046600000000     0.844700000000     0.690100000000     0.00133575 
C        C      0.950300000000     0.786500000000     0.722900000000     0.00133575 
C        C      0.081170000000     0.870300000000     0.337360000000     0.00133575 
C        C      0.367690000000     0.833570000000     0.410450000000     0.00133575 
C        C      0.531260000000     0.828810000000     0.461470000000     0.00133575 
C        C      0.695540000000     0.764200000000     0.468120000000     0.00133575 
C        C      0.878570000000     0.755470000000     0.519390000000     0.00133575 
C        C      0.038500000000     0.692200000000     0.525600000000     0.00133575 
C        C      0.025320000000     0.634710000000     0.480250000000     0.00133575 
C        C      0.854890000000     0.640540000000     0.430880000000     0.00133575 
C        C      0.689470000000     0.706010000000     0.421450000000     0.00133575 
C        C      0.520910000000     0.712660000000     0.368520000000     0.00133575 
C        C      0.364520000000     0.776920000000     0.363040000000     0.00133575 
C        C      0.125710000000     0.769380000000     0.254400000000     0.00133575 
C        C      0.019320000000     0.705060000000     0.134500000000     0.00133575 
C        C      0.951160000000     0.670570000000     0.070110000000     0.00133575 
C        C      0.876900000000     0.784100000000     0.233900000000     0.00133575 
C        C      0.815700000000     0.751600000000     0.174400000000     0.00133575 
C        C      0.263300000000     0.690100000000     0.155300000000     0.00133575 
C        C      0.326800000000     0.722900000000     0.213500000000     0.00133575 
C        C      0.288830000000     0.129700000000     0.662640000000     0.00133575 
C        C      0.611710000000     0.166430000000     0.589550000000     0.00133575 
C        C      0.821540000000     0.171190000000     0.538530000000     0.00133575 
C        C      0.927860000000     0.235800000000     0.531880000000     0.00133575 
C        C      0.153430000000     0.244530000000     0.480610000000     0.00133575 
C        C      0.256300000000     0.307800000000     0.474400000000     0.00133575 
C        C      0.140280000000     0.365290000000     0.519750000000     0.00133575 
C        C      0.926310000000     0.359460000000     0.569120000000     0.00133575 
C        C      0.816930000000     0.293990000000     0.578550000000     0.00133575 
C        C      0.602090000000     0.287340000000     0.631480000000     0.00133575 
C        C      0.504480000000     0.223080000000     0.636960000000     0.00133575 
C        C      0.149490000000     0.230620000000     0.745600000000     0.00133575 
C        C      0.858880000000     0.294940000000     0.865500000000     0.00133575 
C        C      0.691840000000     0.329430000000     0.929890000000     0.00133575 
C        C      0.894900000000     0.215900000000     0.766100000000     0.00133575 
C        C      0.741700000000     0.248400000000     0.825600000000     0.00133575 
C        C      0.108700000000     0.309900000000     0.844700000000     0.00133575 
C        C      0.263200000000     0.277100000000     0.786500000000     0.00133575 
N        N      0.424520000000     0.392440000000     0.109320000000    -0.164591   
N        N      0.501200000000     0.316380000000     0.196620000000    -0.164591   
N        N      0.926280000000     0.607560000000     0.890680000000    -0.164591   
N        N      0.014200000000     0.683620000000     0.803380000000    -0.164591   
N        N      0.183040000000     0.890680000000     0.392440000000    -0.164591   
N        N      0.182420000000     0.803380000000     0.316380000000    -0.164591   
N        N      0.466160000000     0.109320000000     0.607560000000    -0.164591   
N        N      0.302180000000     0.196620000000     0.683620000000    -0.164591   
O        O      0.595220000000     0.532290000000     0.029670000000    -0.254141   
O        O      0.863560000000     0.051520000000     0.387960000000    -0.254141   
O        O      0.236300000000     0.053700000000     0.313300000000    -0.254141   
O        O      0.157180000000     0.467710000000     0.970330000000    -0.254141   
O        O      0.303040000000     0.948480000000     0.612040000000    -0.254141   
O        O      0.603300000000     0.946300000000     0.686700000000    -0.254141   
O        O      0.872490000000     0.970330000000     0.532290000000    -0.254141   
O        O      0.084920000000     0.612040000000     0.051520000000    -0.254141   
O        O      0.710000000000     0.686700000000     0.053700000000    -0.254141   
O        O      0.375110000000     0.029670000000     0.467710000000    -0.254141   
O        O      0.748480000000     0.387960000000     0.948480000000    -0.254141   
O        O      0.450400000000     0.313300000000     0.946300000000    -0.254141   


