data_IFEQIV_original

_audit_creation_method RASPA-1.0
_audit_creation_date 2022-1-30
_audit_author_name 'Felipe Lopes de Oliveira <felipe.lopes.oliveira@ibm.com>'

_cell_length_a    5.396
_cell_length_b    18.7159
_cell_length_c    18.7159
_cell_angle_alpha 88.8093
_cell_angle_beta  81.7119
_cell_angle_gamma 81.7116
_cell_volume      1850.86

_symmetry_cell_setting          triclinic
_symmetry_space_group_name_Hall 'P 1'
_symmetry_space_group_name_H-M  'P 1'
_symmetry_Int_Tables_number     1

_symmetry_equiv_pos_as_xyz 'x,y,z'

loop_
_atom_site_label
_atom_site_type_symbol
_atom_site_fract_x
_atom_site_fract_y
_atom_site_fract_z
_atom_site_charge
Zn       Zn     0.661260000000     0.942310000000     0.488650000000     0.4404     
Zn       Zn     0.092220000000     0.057690000000     0.511350000000     0.4404     
Zn       Zn     0.850090000000     0.488650000000     0.057690000000     0.4404     
Zn       Zn     0.396430000000     0.511350000000     0.942310000000     0.4404     
H        H      0.744700000000     0.845400000000     0.166400000000     0.0555404  
H        H      0.423300000000     0.905300000000     0.092900000000     0.0555404  
H        H      0.003700000000     0.042400000000     0.293800000000     0.0555404  
H        H      0.195800000000     0.651000000000     0.129000000000     0.0555404  
H        H      0.659000000000     0.667500000000     0.276900000000     0.0555404  
H        H      0.040000000000     0.816600000000     0.401200000000     0.0555404  
H        H      0.845600000000     0.052600000000     0.184400000000     0.0555404  
H        H      0.328600000000     0.987700000000     0.368100000000     0.0555404  
H        H      0.907200000000     0.745200000000     0.184400000000     0.0555404  
H        H      0.379900000000     0.765500000000     0.330300000000     0.0555404  
H        H      0.060900000000     0.984700000000     0.083500000000     0.0555404  
H        H      0.756500000000     0.154600000000     0.833600000000     0.0555404  
H        H      0.421500000000     0.094700000000     0.907100000000     0.0555404  
H        H      0.339900000000     0.957600000000     0.706200000000     0.0555404  
H        H      0.975800000000     0.349000000000     0.871000000000     0.0555404  
H        H      0.603400000000     0.332500000000     0.723100000000     0.0555404  
H        H      0.257800000000     0.183400000000     0.598800000000     0.0555404  
H        H      0.082600000000     0.947400000000     0.815600000000     0.0555404  
H        H      0.684400000000     0.012300000000     0.631900000000     0.0555404  
H        H      0.836800000000     0.254800000000     0.815600000000     0.0555404  
H        H      0.475700000000     0.234500000000     0.669700000000     0.0555404  
H        H      0.129100000000     0.015300000000     0.916500000000     0.0555404  
H        H      0.088900000000     0.166400000000     0.154600000000     0.0555404  
H        H      0.483800000000     0.092900000000     0.094700000000     0.0555404  
H        H      0.702500000000     0.293800000000     0.957600000000     0.0555404  
H        H      0.675200000000     0.129000000000     0.349000000000     0.0555404  
H        H      0.064100000000     0.276900000000     0.332500000000     0.0555404  
H        H      0.558800000000     0.401200000000     0.183400000000     0.0555404  
H        H      0.970000000000     0.184400000000     0.947400000000     0.0555404  
H        H      0.303300000000     0.368100000000     0.012300000000     0.0555404  
H        H      0.908400000000     0.184400000000     0.254800000000     0.0555404  
H        H      0.289800000000     0.330300000000     0.234500000000     0.0555404  
H        H      0.855600000000     0.083500000000     0.015300000000     0.0555404  
H        H      0.409900000000     0.833600000000     0.845400000000     0.0555404  
H        H      0.671400000000     0.907100000000     0.905300000000     0.0555404  
H        H      0.953900000000     0.706200000000     0.042400000000     0.0555404  
H        H      0.153200000000     0.871000000000     0.651000000000     0.0555404  
H        H      0.673500000000     0.723100000000     0.667500000000     0.0555404  
H        H      0.143400000000     0.598800000000     0.816600000000     0.0555404  
H        H      0.101800000000     0.815600000000     0.052600000000     0.0555404  
H        H      0.683700000000     0.631900000000     0.987700000000     0.0555404  
H        H      0.347600000000     0.815600000000     0.745200000000     0.0555404  
H        H      0.854600000000     0.669700000000     0.765500000000     0.0555404  
H        H      0.954400000000     0.916500000000     0.984700000000     0.0555404  
C        C      0.113230000000     0.763280000000     0.264060000000     0.00352481 
C        C      0.658400000000     0.873210000000     0.206790000000     0.00352481 
C        C      0.631760000000     0.585230000000     0.164450000000     0.00352481 
C        C      0.741780000000     0.865450000000     0.272790000000     0.00352481 
C        C      0.441810000000     0.923330000000     0.200450000000     0.00352481 
C        C      0.339990000000     0.932420000000     0.134000000000     0.00352481 
C        C      0.089870000000     0.014300000000     0.253560000000     0.00352481 
C        C      0.619230000000     0.909280000000     0.332260000000     0.00352481 
C        C      0.313880000000     0.966150000000     0.261090000000     0.00352481 
C        C      0.230940000000     0.672820000000     0.171100000000     0.00352481 
C        C      0.449740000000     0.647580000000     0.198540000000     0.00352481 
C        C      0.505740000000     0.683120000000     0.258200000000     0.00352481 
C        C      0.926480000000     0.839330000000     0.370510000000     0.00352481 
C        C      0.996370000000     0.020620000000     0.188640000000     0.00352481 
C        C      0.408390000000     0.958960000000     0.327660000000     0.00352481 
C        C      0.059840000000     0.729500000000     0.203420000000     0.00352481 
C        C      0.338880000000     0.741220000000     0.290420000000     0.00352481 
C        C      0.124780000000     0.979510000000     0.128330000000     0.00352481 
C        C      0.140570000000     0.236720000000     0.735940000000     0.00352481 
C        C      0.738400000000     0.126790000000     0.793210000000     0.00352481 
C        C      0.381440000000     0.414770000000     0.835550000000     0.00352481 
C        C      0.880020000000     0.134550000000     0.727210000000     0.00352481 
C        C      0.565590000000     0.076670000000     0.799550000000     0.00352481 
C        C      0.406410000000     0.067580000000     0.866000000000     0.00352481 
C        C      0.357730000000     0.985700000000     0.746440000000     0.00352481 
C        C      0.860770000000     0.090720000000     0.667740000000     0.00352481 
C        C      0.541120000000     0.033850000000     0.738910000000     0.00352481 
C        C      0.074860000000     0.327180000000     0.828900000000     0.00352481 
C        C      0.295860000000     0.352420000000     0.801460000000     0.00352481 
C        C      0.447060000000     0.316880000000     0.741800000000     0.00352481 
C        C      0.136320000000     0.160670000000     0.629490000000     0.00352481 
C        C      0.205630000000     0.979380000000     0.811360000000     0.00352481 
C        C      0.695010000000     0.041040000000     0.672340000000     0.00352481 
C        C      0.992760000000     0.270500000000     0.796580000000     0.00352481 
C        C      0.370520000000     0.258780000000     0.709580000000     0.00352481 
C        C      0.232620000000     0.020490000000     0.871670000000     0.00352481 
C        C      0.622710000000     0.264060000000     0.236720000000     0.00352481 
C        C      0.134810000000     0.206790000000     0.126790000000     0.00352481 
C        C      0.203790000000     0.164450000000     0.414770000000     0.00352481 
C        C      0.985430000000     0.272790000000     0.134550000000     0.00352481 
C        C      0.357740000000     0.200450000000     0.076670000000     0.00352481 
C        C      0.526010000000     0.134000000000     0.067580000000     0.00352481 
C        C      0.656570000000     0.253560000000     0.985700000000     0.00352481 
C        C      0.048510000000     0.332260000000     0.090720000000     0.00352481 
C        C      0.425030000000     0.261090000000     0.033850000000     0.00352481 
C        C      0.597960000000     0.171100000000     0.327180000000     0.00352481 
C        C      0.351720000000     0.198540000000     0.352420000000     0.00352481 
C        C      0.236060000000     0.258200000000     0.316880000000     0.00352481 
C        C      0.703010000000     0.370510000000     0.160670000000     0.00352481 
C        C      0.814990000000     0.188640000000     0.979380000000     0.00352481 
C        C      0.263950000000     0.327660000000     0.041040000000     0.00352481 
C        C      0.736740000000     0.203420000000     0.270500000000     0.00352481 
C        C      0.370700000000     0.290420000000     0.258780000000     0.00352481 
C        C      0.746890000000     0.128330000000     0.020490000000     0.00352481 
C        C      0.123490000000     0.735940000000     0.763280000000     0.00352481 
C        C      0.468390000000     0.793210000000     0.873210000000     0.00352481 
C        C      0.783010000000     0.835550000000     0.585230000000     0.00352481 
C        C      0.392770000000     0.727210000000     0.865450000000     0.00352481 
C        C      0.634860000000     0.799550000000     0.923330000000     0.00352481 
C        C      0.727590000000     0.866000000000     0.932420000000     0.00352481 
C        C      0.895830000000     0.746440000000     0.014300000000     0.00352481 
C        C      0.471490000000     0.667740000000     0.909280000000     0.00352481 
C        C      0.719970000000     0.738910000000     0.966150000000     0.00352481 
C        C      0.096240000000     0.828900000000     0.672820000000     0.00352481 
C        C      0.902680000000     0.801460000000     0.647580000000     0.00352481 
C        C      0.811140000000     0.741800000000     0.683120000000     0.00352481 
C        C      0.234190000000     0.629490000000     0.839330000000     0.00352481 
C        C      0.983010000000     0.811360000000     0.020620000000     0.00352481 
C        C      0.632650000000     0.672340000000     0.958960000000     0.00352481 
C        C      0.210660000000     0.796580000000     0.729500000000     0.00352481 
C        C      0.919900000000     0.709580000000     0.741220000000     0.00352481 
C        C      0.895710000000     0.871670000000     0.979510000000     0.00352481 
N        N      0.743330000000     0.891150000000     0.391990000000    -0.16467    
N        N      0.939440000000     0.820750000000     0.299570000000    -0.16467    
N        N      0.026470000000     0.108850000000     0.608010000000    -0.16467    
N        N      0.059760000000     0.179250000000     0.700430000000    -0.16467    
N        N      0.864680000000     0.391990000000     0.108850000000    -0.16467    
N        N      0.760990000000     0.299570000000     0.179250000000    -0.16467    
N        N      0.365520000000     0.608010000000     0.891150000000    -0.16467    
N        N      0.239810000000     0.700430000000     0.820750000000    -0.16467    
O        O      0.306160000000     0.965580000000     0.521100000000    -0.261817   
O        O      0.577270000000     0.558940000000     0.107720000000    -0.261817   
O        O      0.825380000000     0.564570000000     0.192070000000    -0.261817   
O        O      0.792840000000     0.034420000000     0.478900000000    -0.261817   
O        O      0.243930000000     0.441060000000     0.892280000000    -0.261817   
O        O      0.582020000000     0.435430000000     0.807930000000    -0.261817   
O        O      0.172740000000     0.521100000000     0.034420000000    -0.261817   
O        O      0.315010000000     0.107720000000     0.441060000000    -0.261817   
O        O      0.982550000000     0.192070000000     0.435430000000    -0.261817   
O        O      0.728260000000     0.478900000000     0.965580000000    -0.261817   
O        O      0.863790000000     0.892280000000     0.558940000000    -0.261817   
O        O      0.610050000000     0.807930000000     0.564570000000    -0.261817   


