data_IGOCOX_original

_audit_creation_method RASPA-1.0
_audit_creation_date 2022-1-29
_audit_author_name 'Felipe Lopes de Oliveira <felipe.lopes.oliveira@ibm.com>'

_cell_length_a    15.3421
_cell_length_b    15.3421
_cell_length_c    15.3421
_cell_angle_alpha 60
_cell_angle_beta  60
_cell_angle_gamma 60
_cell_volume      2553.52

_symmetry_cell_setting          triclinic
_symmetry_space_group_name_Hall 'P 1'
_symmetry_space_group_name_H-M  'P 1'
_symmetry_Int_Tables_number     1

_symmetry_equiv_pos_as_xyz 'x,y,z'

loop_
_atom_site_label
_atom_site_type_symbol
_atom_site_fract_x
_atom_site_fract_y
_atom_site_fract_z
_atom_site_charge
Zn       Zn     0.154160000000     0.154160000000     0.537520000000     0.404327   
Zn       Zn     0.154160000000     0.154160000000     0.154160000000     0.404327   
Zn       Zn     0.537520000000     0.154160000000     0.154160000000     0.404327   
Zn       Zn     0.154160000000     0.537520000000     0.154160000000     0.404327   
Zn       Zn     0.845840000000     0.845840000000     0.462480000000     0.404327   
Zn       Zn     0.845840000000     0.845840000000     0.845840000000     0.404327   
Zn       Zn     0.845840000000     0.462480000000     0.845840000000     0.404327   
Zn       Zn     0.462480000000     0.845840000000     0.845840000000     0.404327   
Zn       Zn     0.250000000000     0.250000000000     0.250000000000     0.404327   
Zn       Zn     0.750000000000     0.750000000000     0.750000000000     0.404327   
H        H      0.000000000000     0.340800000000     0.659200000000     0.13125    
H        H      0.340800000000     0.000000000000     0.000000000000     0.13125    
H        H      0.659200000000     0.000000000000     0.000000000000     0.13125    
H        H      0.000000000000     0.659200000000     0.340800000000     0.13125    
H        H      0.000000000000     0.659200000000     0.000000000000     0.13125    
H        H      0.340800000000     0.000000000000     0.659200000000     0.13125    
H        H      0.659200000000     0.000000000000     0.340800000000     0.13125    
H        H      0.000000000000     0.340800000000     0.000000000000     0.13125    
H        H      0.000000000000     0.000000000000     0.340800000000     0.13125    
H        H      0.340800000000     0.659200000000     0.000000000000     0.13125    
H        H      0.659200000000     0.340800000000     0.000000000000     0.13125    
H        H      0.000000000000     0.000000000000     0.659200000000     0.13125    
C        C      0.053600000000     0.401000000000     0.491800000000     0.0120577  
C        C      0.401000000000     0.053600000000     0.053600000000     0.0120577  
C        C      0.491800000000     0.053600000000     0.053600000000     0.0120577  
C        C      0.053600000000     0.491800000000     0.401000000000     0.0120577  
C        C      0.053600000000     0.491800000000     0.053600000000     0.0120577  
C        C      0.401000000000     0.053600000000     0.491800000000     0.0120577  
C        C      0.491800000000     0.053600000000     0.401000000000     0.0120577  
C        C      0.053600000000     0.401000000000     0.053600000000     0.0120577  
C        C      0.053600000000     0.053600000000     0.401000000000     0.0120577  
C        C      0.401000000000     0.491800000000     0.053600000000     0.0120577  
C        C      0.491800000000     0.401000000000     0.053600000000     0.0120577  
C        C      0.053600000000     0.053600000000     0.491800000000     0.0120577  
C        C      0.599000000000     0.946400000000     0.508200000000     0.0120577  
C        C      0.946400000000     0.599000000000     0.946400000000     0.0120577  
C        C      0.946400000000     0.508200000000     0.946400000000     0.0120577  
C        C      0.508200000000     0.946400000000     0.599000000000     0.0120577  
C        C      0.508200000000     0.946400000000     0.946400000000     0.0120577  
C        C      0.946400000000     0.599000000000     0.508200000000     0.0120577  
C        C      0.946400000000     0.508200000000     0.599000000000     0.0120577  
C        C      0.599000000000     0.946400000000     0.946400000000     0.0120577  
C        C      0.946400000000     0.946400000000     0.599000000000     0.0120577  
C        C      0.508200000000     0.599000000000     0.946400000000     0.0120577  
C        C      0.599000000000     0.508200000000     0.946400000000     0.0120577  
C        C      0.946400000000     0.946400000000     0.508200000000     0.0120577  
C        C      0.000000000000     0.401400000000     0.598600000000     0.0120577  
C        C      0.401400000000     0.000000000000     0.000000000000     0.0120577  
C        C      0.598600000000     0.000000000000     0.000000000000     0.0120577  
C        C      0.000000000000     0.598600000000     0.401400000000     0.0120577  
C        C      0.000000000000     0.598600000000     0.000000000000     0.0120577  
C        C      0.401400000000     0.000000000000     0.598600000000     0.0120577  
C        C      0.598600000000     0.000000000000     0.401400000000     0.0120577  
C        C      0.000000000000     0.401400000000     0.000000000000     0.0120577  
C        C      0.000000000000     0.000000000000     0.401400000000     0.0120577  
C        C      0.401400000000     0.598600000000     0.000000000000     0.0120577  
C        C      0.598600000000     0.401400000000     0.000000000000     0.0120577  
C        C      0.000000000000     0.000000000000     0.598600000000     0.0120577  
N        N      0.114200000000     0.314840000000     0.456760000000    -0.10126    
N        N      0.314840000000     0.114200000000     0.114200000000    -0.10126    
N        N      0.456760000000     0.114200000000     0.114200000000    -0.10126    
N        N      0.114200000000     0.456760000000     0.314840000000    -0.10126    
N        N      0.114200000000     0.456760000000     0.114200000000    -0.10126    
N        N      0.314840000000     0.114200000000     0.456760000000    -0.10126    
N        N      0.456760000000     0.114200000000     0.314840000000    -0.10126    
N        N      0.114200000000     0.314840000000     0.114200000000    -0.10126    
N        N      0.114200000000     0.114200000000     0.314840000000    -0.10126    
N        N      0.314840000000     0.456760000000     0.114200000000    -0.10126    
N        N      0.456760000000     0.314840000000     0.114200000000    -0.10126    
N        N      0.114200000000     0.114200000000     0.456760000000    -0.10126    
N        N      0.685160000000     0.885800000000     0.543240000000    -0.10126    
N        N      0.885800000000     0.685160000000     0.885800000000    -0.10126    
N        N      0.885800000000     0.543240000000     0.885800000000    -0.10126    
N        N      0.543240000000     0.885800000000     0.685160000000    -0.10126    
N        N      0.543240000000     0.885800000000     0.885800000000    -0.10126    
N        N      0.885800000000     0.685160000000     0.543240000000    -0.10126    
N        N      0.885800000000     0.543240000000     0.685160000000    -0.10126    
N        N      0.685160000000     0.885800000000     0.885800000000    -0.10126    
N        N      0.885800000000     0.885800000000     0.685160000000    -0.10126    
N        N      0.543240000000     0.685160000000     0.885800000000    -0.10126    
N        N      0.685160000000     0.543240000000     0.885800000000    -0.10126    
N        N      0.885800000000     0.885800000000     0.543240000000    -0.10126    
N        N      0.148100000000     0.351900000000     0.351900000000    -0.10126    
N        N      0.351900000000     0.148100000000     0.148100000000    -0.10126    
N        N      0.148100000000     0.351900000000     0.148100000000    -0.10126    
N        N      0.351900000000     0.148100000000     0.351900000000    -0.10126    
N        N      0.148100000000     0.148100000000     0.351900000000    -0.10126    
N        N      0.351900000000     0.351900000000     0.148100000000    -0.10126    
N        N      0.648100000000     0.851900000000     0.648100000000    -0.10126    
N        N      0.851900000000     0.648100000000     0.851900000000    -0.10126    
N        N      0.648100000000     0.851900000000     0.851900000000    -0.10126    
N        N      0.851900000000     0.648100000000     0.648100000000    -0.10126    
N        N      0.851900000000     0.851900000000     0.648100000000    -0.10126    
N        N      0.648100000000     0.648100000000     0.851900000000    -0.10126    
Cl       Cl     0.098120000000     0.098120000000     0.705640000000    -0.300872   
Cl       Cl     0.098120000000     0.098120000000     0.098120000000    -0.300872   
Cl       Cl     0.705640000000     0.098120000000     0.098120000000    -0.300872   
Cl       Cl     0.098120000000     0.705640000000     0.098120000000    -0.300872   
Cl       Cl     0.901880000000     0.901880000000     0.294360000000    -0.300872   
Cl       Cl     0.901880000000     0.901880000000     0.901880000000    -0.300872   
Cl       Cl     0.901880000000     0.294360000000     0.901880000000    -0.300872   
Cl       Cl     0.294360000000     0.901880000000     0.901880000000    -0.300872   


