data_IJANEN_original

_audit_creation_method RASPA-1.0
_audit_creation_date 2022-1-31
_audit_author_name 'Felipe Lopes de Oliveira <felipe.lopes.oliveira@ibm.com>'

_cell_length_a    9.472
_cell_length_b    11.4977
_cell_length_c    22.5039
_cell_angle_alpha 91.5707
_cell_angle_beta  102.149
_cell_angle_gamma 114.325
_cell_volume      2165.25

_symmetry_cell_setting          triclinic
_symmetry_space_group_name_Hall 'P 1'
_symmetry_space_group_name_H-M  'P 1'
_symmetry_Int_Tables_number     1

_symmetry_equiv_pos_as_xyz 'x,y,z'

loop_
_atom_site_label
_atom_site_type_symbol
_atom_site_fract_x
_atom_site_fract_y
_atom_site_fract_z
_atom_site_charge
Zn       Zn     0.805700000000     0.162710000000     0.738630000000     0.434047   
Zn       Zn     0.404360000000     0.337290000000     0.761370000000     0.434047   
Zn       Zn     0.194300000000     0.837290000000     0.261370000000     0.434047   
Zn       Zn     0.595640000000     0.662710000000     0.238630000000     0.434047   
Zn       Zn     0.834350000000     0.750000000000     0.750000000000     0.434047   
Zn       Zn     0.165650000000     0.250000000000     0.250000000000     0.434047   
H        H      0.317600000000     0.946900000000     0.570900000000     0.0542206  
H        H      0.066500000000     0.933300000000     0.525700000000     0.0542206  
H        H      0.922500000000     0.981500000000     0.585100000000     0.0542206  
H        H      0.916500000000     0.832900000000     0.167900000000     0.0542206  
H        H      0.834600000000     0.827100000000     0.063500000000     0.0542206  
H        H      0.252000000000     0.834300000000     0.049100000000     0.0542206  
H        H      0.320100000000     0.837600000000     0.153000000000     0.0542206  
H        H      0.747600000000     0.723200000000     0.964800000000     0.0542206  
H        H      0.682000000000     0.702100000000     0.860300000000     0.0542206  
H        H      0.125000000000     0.896600000000     0.857000000000     0.0542206  
H        H      0.204100000000     0.920500000000     0.960700000000     0.0542206  
H        H      0.299800000000     0.553100000000     0.929100000000     0.0542206  
H        H      0.107500000000     0.566700000000     0.974300000000     0.0542206  
H        H      0.855900000000     0.518500000000     0.914900000000     0.0542206  
H        H      0.415700000000     0.667100000000     0.332100000000     0.0542206  
H        H      0.444000000000     0.672900000000     0.436500000000     0.0542206  
H        H      0.868600000000     0.665700000000     0.450900000000     0.0542206  
H        H      0.829500000000     0.662400000000     0.347000000000     0.0542206  
H        H      0.559600000000     0.776800000000     0.535200000000     0.0542206  
H        H      0.619600000000     0.797900000000     0.639700000000     0.0542206  
H        H      0.871400000000     0.603400000000     0.643000000000     0.0542206  
H        H      0.822900000000     0.579500000000     0.539300000000     0.0542206  
H        H      0.682400000000     0.053100000000     0.429100000000     0.0542206  
H        H      0.933500000000     0.066700000000     0.474300000000     0.0542206  
H        H      0.077500000000     0.018500000000     0.414900000000     0.0542206  
H        H      0.083500000000     0.167100000000     0.832100000000     0.0542206  
H        H      0.165400000000     0.172900000000     0.936500000000     0.0542206  
H        H      0.748000000000     0.165700000000     0.950900000000     0.0542206  
H        H      0.679900000000     0.162400000000     0.847000000000     0.0542206  
H        H      0.252400000000     0.276800000000     0.035200000000     0.0542206  
H        H      0.318000000000     0.297900000000     0.139700000000     0.0542206  
H        H      0.875000000000     0.103400000000     0.143000000000     0.0542206  
H        H      0.795900000000     0.079500000000     0.039300000000     0.0542206  
H        H      0.700200000000     0.446900000000     0.070900000000     0.0542206  
H        H      0.892500000000     0.433300000000     0.025700000000     0.0542206  
H        H      0.144100000000     0.481500000000     0.085100000000     0.0542206  
H        H      0.584300000000     0.332900000000     0.667900000000     0.0542206  
H        H      0.556000000000     0.327100000000     0.563500000000     0.0542206  
H        H      0.131400000000     0.334300000000     0.549100000000     0.0542206  
H        H      0.170500000000     0.337600000000     0.653000000000     0.0542206  
H        H      0.440400000000     0.223200000000     0.464800000000     0.0542206  
H        H      0.380400000000     0.202100000000     0.360300000000     0.0542206  
H        H      0.128600000000     0.396600000000     0.357000000000     0.0542206  
H        H      0.177100000000     0.420500000000     0.460700000000     0.0542206  
C        C      0.258410000000     0.964750000000     0.594890000000     0.0336983  
C        C      0.107940000000     0.956440000000     0.567720000000     0.0336983  
C        C      0.020800000000     0.982690000000     0.603430000000     0.0336983  
C        C      0.078610000000     0.011130000000     0.666870000000     0.0336983  
C        C      0.230390000000     0.021850000000     0.694470000000     0.0336983  
C        C      0.320640000000     0.999310000000     0.657410000000     0.0336983  
C        C      0.488120000000     0.018530000000     0.682390000000     0.0336983  
C        C      0.294890000000     0.055210000000     0.762510000000     0.0336983  
C        C      0.972470000000     0.026440000000     0.704520000000     0.0336983  
C        C      0.984490000000     0.833100000000     0.143440000000     0.0336983  
C        C      0.934420000000     0.829760000000     0.080560000000     0.0336983  
C        C      0.034010000000     0.830460000000     0.043660000000     0.0336983  
C        C      0.181210000000     0.833830000000     0.072290000000     0.0336983  
C        C      0.221690000000     0.836240000000     0.134640000000     0.0336983  
C        C      0.986400000000     0.823890000000     0.976250000000     0.0336983  
C        C      0.827400000000     0.758450000000     0.943890000000     0.0336983  
C        C      0.788900000000     0.746110000000     0.880970000000     0.0336983  
C        C      0.047820000000     0.859350000000     0.878890000000     0.0336983  
C        C      0.096330000000     0.875030000000     0.941490000000     0.0336983  
C        C      0.198770000000     0.535250000000     0.905110000000     0.0336983  
C        C      0.083780000000     0.543560000000     0.932280000000     0.0336983  
C        C      0.934680000000     0.517310000000     0.896570000000     0.0336983  
C        C      0.900610000000     0.488870000000     0.833130000000     0.0336983  
C        C      0.014070000000     0.478150000000     0.805530000000     0.0336983  
C        C      0.163920000000     0.500690000000     0.842590000000     0.0336983  
C        C      0.287200000000     0.481470000000     0.817610000000     0.0336983  
C        C      0.977170000000     0.444790000000     0.737490000000     0.0336983  
C        C      0.741510000000     0.473560000000     0.795480000000     0.0336983  
C        C      0.507950000000     0.666900000000     0.356560000000     0.0336983  
C        C      0.524100000000     0.670240000000     0.419440000000     0.0336983  
C        C      0.659890000000     0.669540000000     0.456340000000     0.0336983  
C        C      0.775090000000     0.666170000000     0.427710000000     0.0336983  
C        C      0.750810000000     0.663760000000     0.365360000000     0.0336983  
C        C      0.686260000000     0.676110000000     0.523750000000     0.0336983  
C        C      0.625060000000     0.741550000000     0.556110000000     0.0336983  
C        C      0.661820000000     0.753890000000     0.619030000000     0.0336983  
C        C      0.809580000000     0.640650000000     0.621110000000     0.0336983  
C        C      0.779810000000     0.624970000000     0.558510000000     0.0336983  
C        C      0.741590000000     0.035250000000     0.405110000000     0.0336983  
C        C      0.892060000000     0.043560000000     0.432280000000     0.0336983  
C        C      0.979200000000     0.017310000000     0.396570000000     0.0336983  
C        C      0.921390000000     0.988870000000     0.333130000000     0.0336983  
C        C      0.769610000000     0.978150000000     0.305530000000     0.0336983  
C        C      0.679360000000     0.000690000000     0.342590000000     0.0336983  
C        C      0.511880000000     0.981470000000     0.317610000000     0.0336983  
C        C      0.705110000000     0.944790000000     0.237490000000     0.0336983  
C        C      0.027530000000     0.973560000000     0.295480000000     0.0336983  
C        C      0.015510000000     0.166900000000     0.856560000000     0.0336983  
C        C      0.065580000000     0.170240000000     0.919440000000     0.0336983  
C        C      0.965990000000     0.169540000000     0.956340000000     0.0336983  
C        C      0.818790000000     0.166170000000     0.927710000000     0.0336983  
C        C      0.778310000000     0.163760000000     0.865360000000     0.0336983  
C        C      0.013600000000     0.176110000000     0.023750000000     0.0336983  
C        C      0.172600000000     0.241550000000     0.056110000000     0.0336983  
C        C      0.211100000000     0.253890000000     0.119030000000     0.0336983  
C        C      0.952180000000     0.140650000000     0.121110000000     0.0336983  
C        C      0.903670000000     0.124970000000     0.058510000000     0.0336983  
C        C      0.801230000000     0.464750000000     0.094890000000     0.0336983  
C        C      0.916220000000     0.456440000000     0.067720000000     0.0336983  
C        C      0.065320000000     0.482690000000     0.103430000000     0.0336983  
C        C      0.099390000000     0.511130000000     0.166870000000     0.0336983  
C        C      0.985930000000     0.521850000000     0.194470000000     0.0336983  
C        C      0.836080000000     0.499310000000     0.157410000000     0.0336983  
C        C      0.712800000000     0.518530000000     0.182390000000     0.0336983  
C        C      0.022830000000     0.555210000000     0.262510000000     0.0336983  
C        C      0.258490000000     0.526440000000     0.204520000000     0.0336983  
C        C      0.492050000000     0.333100000000     0.643440000000     0.0336983  
C        C      0.475900000000     0.329760000000     0.580560000000     0.0336983  
C        C      0.340110000000     0.330460000000     0.543660000000     0.0336983  
C        C      0.224910000000     0.333830000000     0.572290000000     0.0336983  
C        C      0.249190000000     0.336240000000     0.634640000000     0.0336983  
C        C      0.313740000000     0.323890000000     0.476250000000     0.0336983  
C        C      0.374940000000     0.258450000000     0.443890000000     0.0336983  
C        C      0.338180000000     0.246110000000     0.380970000000     0.0336983  
C        C      0.190420000000     0.359350000000     0.378890000000     0.0336983  
C        C      0.220190000000     0.375030000000     0.441490000000     0.0336983  
N        N      0.124900000000     0.836600000000     0.169980000000    -0.158185   
N        N      0.897590000000     0.794390000000     0.847650000000    -0.158185   
N        N      0.618320000000     0.663400000000     0.330020000000    -0.158185   
N        N      0.755550000000     0.705610000000     0.652350000000    -0.158185   
N        N      0.875100000000     0.163400000000     0.830020000000    -0.158185   
N        N      0.102410000000     0.205610000000     0.152350000000    -0.158185   
N        N      0.381680000000     0.336600000000     0.669980000000    -0.158185   
N        N      0.244450000000     0.294390000000     0.347650000000    -0.158185   
O        O      0.574860000000     0.110320000000     0.723120000000    -0.261899   
O        O      0.513640000000     0.913270000000     0.674210000000    -0.261899   
O        O      0.314500000000     0.970760000000     0.792780000000    -0.261899   
O        O      0.319060000000     0.163080000000     0.787240000000    -0.261899   
O        O      0.927890000000     0.114540000000     0.692000000000    -0.261899   
O        O      0.932820000000     0.955610000000     0.744230000000    -0.261899   
O        O      0.241420000000     0.389680000000     0.776880000000    -0.261899   
O        O      0.426160000000     0.586730000000     0.825790000000    -0.261899   
O        O      0.050960000000     0.529240000000     0.707220000000    -0.261899   
O        O      0.868740000000     0.336920000000     0.712760000000    -0.261899   
O        O      0.621350000000     0.385460000000     0.808000000000    -0.261899   
O        O      0.732980000000     0.544390000000     0.755770000000    -0.261899   
O        O      0.425140000000     0.889680000000     0.276880000000    -0.261899   
O        O      0.486360000000     0.086730000000     0.325790000000    -0.261899   
O        O      0.685500000000     0.029240000000     0.207220000000    -0.261899   
O        O      0.680940000000     0.836920000000     0.212760000000    -0.261899   
O        O      0.072110000000     0.885460000000     0.308000000000    -0.261899   
O        O      0.067180000000     0.044390000000     0.255770000000    -0.261899   
O        O      0.758580000000     0.610320000000     0.223120000000    -0.261899   
O        O      0.573840000000     0.413270000000     0.174210000000    -0.261899   
O        O      0.949040000000     0.470760000000     0.292780000000    -0.261899   
O        O      0.131260000000     0.663080000000     0.287240000000    -0.261899   
O        O      0.378650000000     0.614540000000     0.192000000000    -0.261899   
O        O      0.267020000000     0.455610000000     0.244230000000    -0.261899   


