data_ILOJEZ_original

_audit_creation_method RASPA-1.0
_audit_creation_date 2022-1-29
_audit_author_name 'Felipe Lopes de Oliveira <felipe.lopes.oliveira@ibm.com>'

_cell_length_a    10.836
_cell_length_b    14.962
_cell_length_c    14.967
_cell_angle_alpha 90
_cell_angle_beta  92.494
_cell_angle_gamma 90
_cell_volume      2424.27

_symmetry_cell_setting          triclinic
_symmetry_space_group_name_Hall 'P 1'
_symmetry_space_group_name_H-M  'P 1'
_symmetry_Int_Tables_number     1

_symmetry_equiv_pos_as_xyz 'x,y,z'

loop_
_atom_site_label
_atom_site_type_symbol
_atom_site_fract_x
_atom_site_fract_y
_atom_site_fract_z
_atom_site_charge
Zn       Zn     0.429520000000     0.657610000000     0.121230000000     0.434081   
Zn       Zn     0.070480000000     0.157610000000     0.878770000000     0.434081   
Zn       Zn     0.570480000000     0.342390000000     0.878770000000     0.434081   
Zn       Zn     0.929520000000     0.842390000000     0.121230000000     0.434081   
H        H      0.251500000000     0.589800000000     0.265900000000     0.060421   
H        H      0.471600000000     0.790500000000     0.297600000000     0.060421   
H        H      0.430100000000     0.825800000000     0.466100000000     0.060421   
H        H      0.363400000000     0.747800000000     0.514300000000     0.060421   
H        H      0.210100000000     0.869400000000     0.344600000000     0.060421   
H        H      0.047100000000     0.964500000000     0.360300000000     0.060421   
H        H      0.082600000000     0.937200000000     0.623800000000     0.060421   
H        H      0.240300000000     0.837300000000     0.604600000000     0.060421   
H        H      0.835600000000     0.409700000000     0.494900000000     0.060421   
H        H      0.756100000000     0.371800000000     0.355700000000     0.060421   
H        H      0.024500000000     0.502800000000     0.243800000000     0.060421   
H        H      0.104800000000     0.543000000000     0.384600000000     0.060421   
H        H      0.879900000000     0.413100000000     0.148400000000     0.060421   
H        H      0.767600000000     0.365900000000     0.192200000000     0.060421   
H        H      0.565000000000     0.456100000000     0.142100000000     0.060421   
H        H      0.702000000000     0.694900000000     0.145900000000     0.060421   
H        H      0.345700000000     0.894600000000     0.985100000000     0.060421   
H        H      0.248500000000     0.089800000000     0.734100000000     0.060421   
H        H      0.028400000000     0.290500000000     0.702400000000     0.060421   
H        H      0.069900000000     0.325800000000     0.533900000000     0.060421   
H        H      0.136600000000     0.247800000000     0.485700000000     0.060421   
H        H      0.289900000000     0.369400000000     0.655400000000     0.060421   
H        H      0.452900000000     0.464500000000     0.639700000000     0.060421   
H        H      0.417400000000     0.437200000000     0.376200000000     0.060421   
H        H      0.259700000000     0.337300000000     0.395400000000     0.060421   
H        H      0.664400000000     0.909700000000     0.505100000000     0.060421   
H        H      0.743900000000     0.871800000000     0.644300000000     0.060421   
H        H      0.475500000000     0.002800000000     0.756200000000     0.060421   
H        H      0.395200000000     0.043000000000     0.615400000000     0.060421   
H        H      0.620100000000     0.913100000000     0.851600000000     0.060421   
H        H      0.732400000000     0.865900000000     0.807800000000     0.060421   
H        H      0.935000000000     0.956100000000     0.857900000000     0.060421   
H        H      0.798000000000     0.194900000000     0.854100000000     0.060421   
H        H      0.154300000000     0.394600000000     0.014900000000     0.060421   
H        H      0.748500000000     0.410200000000     0.734100000000     0.060421   
H        H      0.528400000000     0.209500000000     0.702400000000     0.060421   
H        H      0.569900000000     0.174200000000     0.533900000000     0.060421   
H        H      0.636600000000     0.252200000000     0.485700000000     0.060421   
H        H      0.789900000000     0.130600000000     0.655400000000     0.060421   
H        H      0.952900000000     0.035500000000     0.639700000000     0.060421   
H        H      0.917400000000     0.062800000000     0.376200000000     0.060421   
H        H      0.759700000000     0.162700000000     0.395400000000     0.060421   
H        H      0.164400000000     0.590300000000     0.505100000000     0.060421   
H        H      0.243900000000     0.628200000000     0.644300000000     0.060421   
H        H      0.975500000000     0.497200000000     0.756200000000     0.060421   
H        H      0.895200000000     0.457000000000     0.615400000000     0.060421   
H        H      0.120100000000     0.586900000000     0.851600000000     0.060421   
H        H      0.232400000000     0.634100000000     0.807800000000     0.060421   
H        H      0.435000000000     0.543900000000     0.857900000000     0.060421   
H        H      0.298000000000     0.305100000000     0.854100000000     0.060421   
H        H      0.654300000000     0.105400000000     0.014900000000     0.060421   
H        H      0.751500000000     0.910200000000     0.265900000000     0.060421   
H        H      0.971600000000     0.709500000000     0.297600000000     0.060421   
H        H      0.930100000000     0.674200000000     0.466100000000     0.060421   
H        H      0.863400000000     0.752200000000     0.514300000000     0.060421   
H        H      0.710100000000     0.630600000000     0.344600000000     0.060421   
H        H      0.547100000000     0.535500000000     0.360300000000     0.060421   
H        H      0.582600000000     0.562800000000     0.623800000000     0.060421   
H        H      0.740300000000     0.662700000000     0.604600000000     0.060421   
H        H      0.335600000000     0.090300000000     0.494900000000     0.060421   
H        H      0.256100000000     0.128200000000     0.355700000000     0.060421   
H        H      0.524500000000     0.997200000000     0.243800000000     0.060421   
H        H      0.604800000000     0.957000000000     0.384600000000     0.060421   
H        H      0.379900000000     0.086900000000     0.148400000000     0.060421   
H        H      0.267600000000     0.134100000000     0.192200000000     0.060421   
H        H      0.065000000000     0.043900000000     0.142100000000     0.060421   
H        H      0.202000000000     0.805100000000     0.145900000000     0.060421   
H        H      0.845700000000     0.605400000000     0.985100000000     0.060421   
C        C      0.294700000000     0.637700000000     0.291600000000     0.0137102  
C        C      0.414100000000     0.745700000000     0.307000000000     0.0137102  
C        C      0.357000000000     0.788300000000     0.463700000000     0.0137102  
C        C      0.245400000000     0.846600000000     0.473200000000     0.0137102  
C        C      0.185400000000     0.883500000000     0.401700000000     0.0137102  
C        C      0.088100000000     0.941700000000     0.411200000000     0.0137102  
C        C      0.050000000000     0.966800000000     0.494400000000     0.0137102  
C        C      0.107900000000     0.925200000000     0.566400000000     0.0137102  
C        C      0.203700000000     0.865400000000     0.554700000000     0.0137102  
C        C      0.975900000000     0.484700000000     0.456100000000     0.0137102  
C        C      0.873900000000     0.431100000000     0.444700000000     0.0137102  
C        C      0.826100000000     0.407800000000     0.360200000000     0.0137102  
C        C      0.877400000000     0.435400000000     0.284400000000     0.0137102  
C        C      0.983900000000     0.485000000000     0.294300000000     0.0137102  
C        C      0.032600000000     0.509400000000     0.379900000000     0.0137102  
C        C      0.817300000000     0.419800000000     0.192300000000     0.0137102  
C        C      0.619200000000     0.504100000000     0.147600000000     0.0137102  
C        C      0.695900000000     0.633100000000     0.150300000000     0.0137102  
C        C      0.524200000000     0.827300000000     0.088100000000     0.0137102  
C        C      0.517200000000     0.915200000000     0.036400000000     0.0137102  
C        C      0.611200000000     0.978000000000     0.046600000000     0.0137102  
C        C      0.408000000000     0.937100000000     0.990900000000     0.0137102  
C        C      0.738700000000     0.955400000000     0.085100000000     0.0137102  
C        C      0.205300000000     0.137700000000     0.708400000000     0.0137102  
C        C      0.085900000000     0.245700000000     0.693000000000     0.0137102  
C        C      0.143000000000     0.288300000000     0.536300000000     0.0137102  
C        C      0.254600000000     0.346600000000     0.526800000000     0.0137102  
C        C      0.314600000000     0.383500000000     0.598300000000     0.0137102  
C        C      0.411900000000     0.441700000000     0.588800000000     0.0137102  
C        C      0.450000000000     0.466800000000     0.505600000000     0.0137102  
C        C      0.392100000000     0.425200000000     0.433600000000     0.0137102  
C        C      0.296300000000     0.365400000000     0.445300000000     0.0137102  
C        C      0.524100000000     0.984700000000     0.543900000000     0.0137102  
C        C      0.626100000000     0.931100000000     0.555300000000     0.0137102  
C        C      0.673900000000     0.907800000000     0.639800000000     0.0137102  
C        C      0.622600000000     0.935400000000     0.715600000000     0.0137102  
C        C      0.516100000000     0.985000000000     0.705700000000     0.0137102  
C        C      0.467400000000     0.009400000000     0.620100000000     0.0137102  
C        C      0.682700000000     0.919800000000     0.807700000000     0.0137102  
C        C      0.880800000000     0.004100000000     0.852400000000     0.0137102  
C        C      0.804100000000     0.133100000000     0.849700000000     0.0137102  
C        C      0.975800000000     0.327300000000     0.911900000000     0.0137102  
C        C      0.982800000000     0.415200000000     0.963600000000     0.0137102  
C        C      0.888800000000     0.478000000000     0.953400000000     0.0137102  
C        C      0.092000000000     0.437100000000     0.009100000000     0.0137102  
C        C      0.761300000000     0.455400000000     0.914900000000     0.0137102  
C        C      0.705300000000     0.362300000000     0.708400000000     0.0137102  
C        C      0.585900000000     0.254300000000     0.693000000000     0.0137102  
C        C      0.643000000000     0.211700000000     0.536300000000     0.0137102  
C        C      0.754600000000     0.153400000000     0.526800000000     0.0137102  
C        C      0.814600000000     0.116500000000     0.598300000000     0.0137102  
C        C      0.911900000000     0.058300000000     0.588800000000     0.0137102  
C        C      0.950000000000     0.033200000000     0.505600000000     0.0137102  
C        C      0.892100000000     0.074800000000     0.433600000000     0.0137102  
C        C      0.796300000000     0.134600000000     0.445300000000     0.0137102  
C        C      0.024100000000     0.515300000000     0.543900000000     0.0137102  
C        C      0.126100000000     0.568900000000     0.555300000000     0.0137102  
C        C      0.173900000000     0.592200000000     0.639800000000     0.0137102  
C        C      0.122600000000     0.564600000000     0.715600000000     0.0137102  
C        C      0.016100000000     0.515000000000     0.705700000000     0.0137102  
C        C      0.967400000000     0.490600000000     0.620100000000     0.0137102  
C        C      0.182700000000     0.580200000000     0.807700000000     0.0137102  
C        C      0.380800000000     0.495900000000     0.852400000000     0.0137102  
C        C      0.304100000000     0.366900000000     0.849700000000     0.0137102  
C        C      0.475800000000     0.172700000000     0.911900000000     0.0137102  
C        C      0.482800000000     0.084800000000     0.963600000000     0.0137102  
C        C      0.388800000000     0.022000000000     0.953400000000     0.0137102  
C        C      0.592000000000     0.062900000000     0.009100000000     0.0137102  
C        C      0.261300000000     0.044600000000     0.914900000000     0.0137102  
C        C      0.794700000000     0.862300000000     0.291600000000     0.0137102  
C        C      0.914100000000     0.754300000000     0.307000000000     0.0137102  
C        C      0.857000000000     0.711700000000     0.463700000000     0.0137102  
C        C      0.745400000000     0.653400000000     0.473200000000     0.0137102  
C        C      0.685400000000     0.616500000000     0.401700000000     0.0137102  
C        C      0.588100000000     0.558300000000     0.411200000000     0.0137102  
C        C      0.550000000000     0.533200000000     0.494400000000     0.0137102  
C        C      0.607900000000     0.574800000000     0.566400000000     0.0137102  
C        C      0.703700000000     0.634600000000     0.554700000000     0.0137102  
C        C      0.475900000000     0.015300000000     0.456100000000     0.0137102  
C        C      0.373900000000     0.068900000000     0.444700000000     0.0137102  
C        C      0.326100000000     0.092200000000     0.360200000000     0.0137102  
C        C      0.377400000000     0.064600000000     0.284400000000     0.0137102  
C        C      0.483900000000     0.015000000000     0.294300000000     0.0137102  
C        C      0.532600000000     0.990600000000     0.379900000000     0.0137102  
C        C      0.317300000000     0.080200000000     0.192300000000     0.0137102  
C        C      0.119200000000     0.995900000000     0.147600000000     0.0137102  
C        C      0.195900000000     0.866900000000     0.150300000000     0.0137102  
C        C      0.024200000000     0.672700000000     0.088100000000     0.0137102  
C        C      0.017200000000     0.584800000000     0.036400000000     0.0137102  
C        C      0.111200000000     0.522000000000     0.046600000000     0.0137102  
C        C      0.908000000000     0.562900000000     0.990900000000     0.0137102  
C        C      0.238700000000     0.544600000000     0.085100000000     0.0137102  
N        N      0.379500000000     0.682800000000     0.246500000000    -0.115485   
N        N      0.275900000000     0.663800000000     0.372000000000    -0.115485   
N        N      0.355800000000     0.735100000000     0.380400000000    -0.115485   
N        N      0.588500000000     0.589000000000     0.133800000000    -0.115485   
N        N      0.791100000000     0.582000000000     0.172900000000    -0.115485   
N        N      0.739200000000     0.497700000000     0.170500000000    -0.115485   
N        N      0.120500000000     0.182800000000     0.753500000000    -0.115485   
N        N      0.224100000000     0.163800000000     0.628000000000    -0.115485   
N        N      0.144200000000     0.235100000000     0.619600000000    -0.115485   
N        N      0.911500000000     0.089000000000     0.866200000000    -0.115485   
N        N      0.708900000000     0.082000000000     0.827100000000    -0.115485   
N        N      0.760800000000     0.997700000000     0.829500000000    -0.115485   
N        N      0.620500000000     0.317200000000     0.753500000000    -0.115485   
N        N      0.724100000000     0.336200000000     0.628000000000    -0.115485   
N        N      0.644200000000     0.264900000000     0.619600000000    -0.115485   
N        N      0.411500000000     0.411000000000     0.866200000000    -0.115485   
N        N      0.208900000000     0.418000000000     0.827100000000    -0.115485   
N        N      0.260800000000     0.502300000000     0.829500000000    -0.115485   
N        N      0.879500000000     0.817200000000     0.246500000000    -0.115485   
N        N      0.775900000000     0.836200000000     0.372000000000    -0.115485   
N        N      0.855800000000     0.764900000000     0.380400000000    -0.115485   
N        N      0.088500000000     0.911000000000     0.133800000000    -0.115485   
N        N      0.291100000000     0.918000000000     0.172900000000    -0.115485   
N        N      0.239200000000     0.002300000000     0.170500000000    -0.115485   
O        O      0.463000000000     0.762200000000     0.049000000000    -0.270916   
O        O      0.577000000000     0.823000000000     0.160700000000    -0.270916   
O        O      0.785300000000     0.884800000000     0.053700000000    -0.270916   
O        O      0.788800000000     0.004800000000     0.140800000000    -0.270916   
O        O      0.037000000000     0.262200000000     0.951000000000    -0.270916   
O        O      0.923000000000     0.323000000000     0.839300000000    -0.270916   
O        O      0.714700000000     0.384800000000     0.946300000000    -0.270916   
O        O      0.711200000000     0.504800000000     0.859200000000    -0.270916   
O        O      0.537000000000     0.237800000000     0.951000000000    -0.270916   
O        O      0.423000000000     0.177000000000     0.839300000000    -0.270916   
O        O      0.214700000000     0.115200000000     0.946300000000    -0.270916   
O        O      0.211200000000     0.995200000000     0.859200000000    -0.270916   
O        O      0.963000000000     0.737800000000     0.049000000000    -0.270916   
O        O      0.077000000000     0.677000000000     0.160700000000    -0.270916   
O        O      0.285300000000     0.615200000000     0.053700000000    -0.270916   
O        O      0.288800000000     0.495200000000     0.140800000000    -0.270916   


