data_IMACZN01_original

_audit_creation_method RASPA-1.0
_audit_creation_date 2022-1-28
_audit_author_name 'Felipe Lopes de Oliveira <felipe.lopes.oliveira@ibm.com>'

_cell_length_a    6.6597
_cell_length_b    11.0287
_cell_length_c    11.0287
_cell_angle_alpha 108.09
_cell_angle_beta  90
_cell_angle_gamma 90
_cell_volume      769.996

_symmetry_cell_setting          triclinic
_symmetry_space_group_name_Hall 'P 1'
_symmetry_space_group_name_H-M  'P 1'
_symmetry_Int_Tables_number     1

_symmetry_equiv_pos_as_xyz 'x,y,z'

loop_
_atom_site_label
_atom_site_type_symbol
_atom_site_fract_x
_atom_site_fract_y
_atom_site_fract_z
_atom_site_charge
Zn       Zn     0.880190000000     0.000000000000     0.500000000000     0.509483   
Zn       Zn     0.119810000000     0.500000000000     0.000000000000     0.509483   
H        H      0.665900000000     0.956100000000     0.858300000000     0.130477   
H        H      0.446600000000     0.979900000000     0.809700000000     0.130477   
H        H      0.392100000000     0.263500000000     0.567100000000     0.130477   
H        H      0.260300000000     0.346800000000     0.685000000000     0.130477   
H        H      0.616000000000     0.743000000000     0.765000000000     0.130477   
H        H      0.550000000000     0.186000000000     0.740000000000     0.130477   
H        H      0.665900000000     0.043900000000     0.141700000000     0.130477   
H        H      0.446600000000     0.020100000000     0.190300000000     0.130477   
H        H      0.392100000000     0.736500000000     0.432900000000     0.130477   
H        H      0.260300000000     0.653200000000     0.315000000000     0.130477   
H        H      0.616000000000     0.257000000000     0.235000000000     0.130477   
H        H      0.550000000000     0.814000000000     0.260000000000     0.130477   
H        H      0.334100000000     0.141700000000     0.043900000000     0.130477   
H        H      0.553400000000     0.190300000000     0.020100000000     0.130477   
H        H      0.607900000000     0.432900000000     0.736500000000     0.130477   
H        H      0.739700000000     0.315000000000     0.653200000000     0.130477   
H        H      0.384000000000     0.235000000000     0.257000000000     0.130477   
H        H      0.450000000000     0.260000000000     0.814000000000     0.130477   
H        H      0.334100000000     0.858300000000     0.956100000000     0.130477   
H        H      0.553400000000     0.809700000000     0.979900000000     0.130477   
H        H      0.607900000000     0.567100000000     0.263500000000     0.130477   
H        H      0.739700000000     0.685000000000     0.346800000000     0.130477   
H        H      0.384000000000     0.765000000000     0.743000000000     0.130477   
H        H      0.450000000000     0.740000000000     0.186000000000     0.130477   
C        C      0.563500000000     0.921460000000     0.791340000000     0.0671217  
C        C      0.650000000000     0.912550000000     0.661450000000     0.0671217  
C        C      0.334700000000     0.265570000000     0.650430000000     0.0671217  
C        C      0.190800000000     0.154980000000     0.631420000000     0.0671217  
C        C      0.563500000000     0.078540000000     0.208660000000     0.0671217  
C        C      0.650000000000     0.087450000000     0.338550000000     0.0671217  
C        C      0.334700000000     0.734430000000     0.349570000000     0.0671217  
C        C      0.190800000000     0.845020000000     0.368580000000     0.0671217  
C        C      0.436500000000     0.208660000000     0.078540000000     0.0671217  
C        C      0.350000000000     0.338550000000     0.087450000000     0.0671217  
C        C      0.665300000000     0.349570000000     0.734430000000     0.0671217  
C        C      0.809200000000     0.368580000000     0.845020000000     0.0671217  
C        C      0.436500000000     0.791340000000     0.921460000000     0.0671217  
C        C      0.350000000000     0.661450000000     0.912550000000     0.0671217  
C        C      0.665300000000     0.650430000000     0.265570000000     0.0671217  
C        C      0.809200000000     0.631420000000     0.154980000000     0.0671217  
N        N      0.500000000000     0.792200000000     0.792200000000    -0.168737   
N        N      0.500000000000     0.207800000000     0.207800000000    -0.168737   
N        N      0.500000000000     0.260850000000     0.739150000000    -0.168737   
N        N      0.500000000000     0.739150000000     0.260850000000    -0.168737   
O        O      0.709800000000     0.019020000000     0.651080000000    -0.284338   
O        O      0.660100000000     0.809860000000     0.578100000000    -0.284338   
O        O      0.051400000000     0.152360000000     0.551460000000    -0.284338   
O        O      0.215900000000     0.078650000000     0.690150000000    -0.284338   
O        O      0.709800000000     0.980980000000     0.348920000000    -0.284338   
O        O      0.660100000000     0.190140000000     0.421900000000    -0.284338   
O        O      0.051400000000     0.847640000000     0.448540000000    -0.284338   
O        O      0.215900000000     0.921350000000     0.309850000000    -0.284338   
O        O      0.290200000000     0.348920000000     0.980980000000    -0.284338   
O        O      0.339900000000     0.421900000000     0.190140000000    -0.284338   
O        O      0.948600000000     0.448540000000     0.847640000000    -0.284338   
O        O      0.784100000000     0.309850000000     0.921350000000    -0.284338   
O        O      0.290200000000     0.651080000000     0.019020000000    -0.284338   
O        O      0.339900000000     0.578100000000     0.809860000000    -0.284338   
O        O      0.948600000000     0.551460000000     0.152360000000    -0.284338   
O        O      0.784100000000     0.690150000000     0.078650000000    -0.284338   


