data_ISUCUV_original

_audit_creation_method RASPA-1.0
_audit_creation_date 2022-1-28
_audit_author_name 'Felipe Lopes de Oliveira <felipe.lopes.oliveira@ibm.com>'

_cell_length_a    11.2189
_cell_length_b    11.2189
_cell_length_c    21.255
_cell_angle_alpha 95.7389
_cell_angle_beta  95.7389
_cell_angle_gamma 107.192
_cell_volume      2519.16

_symmetry_cell_setting          triclinic
_symmetry_space_group_name_Hall 'P 1'
_symmetry_space_group_name_H-M  'P 1'
_symmetry_Int_Tables_number     1

_symmetry_equiv_pos_as_xyz 'x,y,z'

loop_
_atom_site_label
_atom_site_type_symbol
_atom_site_fract_x
_atom_site_fract_y
_atom_site_fract_z
_atom_site_charge
Fe       Fe     0.983160000000     0.500020000000     0.192410000000     0.743126   
Fe       Fe     0.499980000000     0.016840000000     0.307590000000     0.743126   
Fe       Fe     0.016840000000     0.499980000000     0.807590000000     0.743126   
Fe       Fe     0.500020000000     0.983160000000     0.692410000000     0.743126   
Fe       Fe     0.752960000000     0.247040000000     0.250000000000     0.743126   
Fe       Fe     0.247040000000     0.752960000000     0.750000000000     0.743126   
H        H      0.007000000000     0.719200000000     0.397900000000     0.0552462  
H        H      0.031900000000     0.743100000000     0.506600000000     0.0552462  
H        H      0.954900000000     0.348700000000     0.391300000000     0.0552462  
H        H      0.904100000000     0.984300000000     0.147100000000     0.0552462  
H        H      0.938000000000     0.831000000000     0.077900000000     0.0552462  
H        H      0.011000000000     0.238000000000     0.029000000000     0.0552462  
H        H      0.481100000000     0.265900000000     0.094200000000     0.0552462  
H        H      0.342500000000     0.277500000000     0.009800000000     0.0552462  
H        H      0.713000000000     0.605400000000     0.076500000000     0.0552462  
H        H      0.280800000000     0.993000000000     0.102100000000     0.0552462  
H        H      0.256900000000     0.968100000000     0.993400000000     0.0552462  
H        H      0.651300000000     0.045100000000     0.108700000000     0.0552462  
H        H      0.015700000000     0.095900000000     0.352900000000     0.0552462  
H        H      0.169000000000     0.062000000000     0.422100000000     0.0552462  
H        H      0.762000000000     0.989000000000     0.471000000000     0.0552462  
H        H      0.734100000000     0.518900000000     0.405800000000     0.0552462  
H        H      0.722500000000     0.657500000000     0.490200000000     0.0552462  
H        H      0.394600000000     0.287000000000     0.423500000000     0.0552462  
H        H      0.993000000000     0.280800000000     0.602100000000     0.0552462  
H        H      0.968100000000     0.256900000000     0.493400000000     0.0552462  
H        H      0.045100000000     0.651300000000     0.608700000000     0.0552462  
H        H      0.095900000000     0.015700000000     0.852900000000     0.0552462  
H        H      0.062000000000     0.169000000000     0.922100000000     0.0552462  
H        H      0.989000000000     0.762000000000     0.971000000000     0.0552462  
H        H      0.518900000000     0.734100000000     0.905800000000     0.0552462  
H        H      0.657500000000     0.722500000000     0.990200000000     0.0552462  
H        H      0.287000000000     0.394600000000     0.923500000000     0.0552462  
H        H      0.719200000000     0.007000000000     0.897900000000     0.0552462  
H        H      0.743100000000     0.031900000000     0.006600000000     0.0552462  
H        H      0.348700000000     0.954900000000     0.891300000000     0.0552462  
H        H      0.984300000000     0.904100000000     0.647100000000     0.0552462  
H        H      0.831000000000     0.938000000000     0.577900000000     0.0552462  
H        H      0.238000000000     0.011000000000     0.529000000000     0.0552462  
H        H      0.265900000000     0.481100000000     0.594200000000     0.0552462  
H        H      0.277500000000     0.342500000000     0.509800000000     0.0552462  
H        H      0.605400000000     0.713000000000     0.576500000000     0.0552462  
C        C      0.966700000000     0.517500000000     0.312400000000     0.0289858  
C        C      0.977200000000     0.529400000000     0.384000000000     0.0289858  
C        C      0.001600000000     0.649600000000     0.419100000000     0.0289858  
C        C      0.017300000000     0.663700000000     0.484000000000     0.0289858  
C        C      0.012200000000     0.560400000000     0.517700000000     0.0289858  
C        C      0.970700000000     0.427500000000     0.414900000000     0.0289858  
C        C      0.923600000000     0.223200000000     0.139600000000     0.0289858  
C        C      0.952900000000     0.126900000000     0.093600000000     0.0289858  
C        C      0.931500000000     0.003700000000     0.108400000000     0.0289858  
C        C      0.950500000000     0.911500000000     0.066900000000     0.0289858  
C        C      0.993800000000     0.155600000000     0.037900000000     0.0289858  
C        C      0.988400000000     0.938400000000     0.008100000000     0.0289858  
C        C      0.704300000000     0.425100000000     0.148200000000     0.0289858  
C        C      0.612400000000     0.434400000000     0.093700000000     0.0289858  
C        C      0.499900000000     0.336700000000     0.073200000000     0.0289858  
C        C      0.416600000000     0.343400000000     0.022700000000     0.0289858  
C        C      0.443500000000     0.450900000000     0.990000000000     0.0289858  
C        C      0.639200000000     0.539600000000     0.062600000000     0.0289858  
C        C      0.482500000000     0.033300000000     0.187600000000     0.0289858  
C        C      0.470600000000     0.022800000000     0.116000000000     0.0289858  
C        C      0.350400000000     0.998400000000     0.080900000000     0.0289858  
C        C      0.336300000000     0.982700000000     0.016000000000     0.0289858  
C        C      0.439600000000     0.987800000000     0.982300000000     0.0289858  
C        C      0.572500000000     0.029300000000     0.085100000000     0.0289858  
C        C      0.776800000000     0.076400000000     0.360400000000     0.0289858  
C        C      0.873100000000     0.047100000000     0.406400000000     0.0289858  
C        C      0.996300000000     0.068500000000     0.391600000000     0.0289858  
C        C      0.088500000000     0.049500000000     0.433100000000     0.0289858  
C        C      0.844400000000     0.006200000000     0.462100000000     0.0289858  
C        C      0.061600000000     0.011600000000     0.491900000000     0.0289858  
C        C      0.574900000000     0.295700000000     0.351800000000     0.0289858  
C        C      0.565600000000     0.387600000000     0.406300000000     0.0289858  
C        C      0.663300000000     0.500100000000     0.426800000000     0.0289858  
C        C      0.656600000000     0.583400000000     0.477300000000     0.0289858  
C        C      0.549100000000     0.556500000000     0.510000000000     0.0289858  
C        C      0.460400000000     0.360800000000     0.437400000000     0.0289858  
C        C      0.033300000000     0.482500000000     0.687600000000     0.0289858  
C        C      0.022800000000     0.470600000000     0.616000000000     0.0289858  
C        C      0.998400000000     0.350400000000     0.580900000000     0.0289858  
C        C      0.982700000000     0.336300000000     0.516000000000     0.0289858  
C        C      0.987800000000     0.439600000000     0.482300000000     0.0289858  
C        C      0.029300000000     0.572500000000     0.585100000000     0.0289858  
C        C      0.076400000000     0.776800000000     0.860400000000     0.0289858  
C        C      0.047100000000     0.873100000000     0.906400000000     0.0289858  
C        C      0.068500000000     0.996300000000     0.891600000000     0.0289858  
C        C      0.049500000000     0.088500000000     0.933100000000     0.0289858  
C        C      0.006200000000     0.844400000000     0.962100000000     0.0289858  
C        C      0.011600000000     0.061600000000     0.991900000000     0.0289858  
C        C      0.295700000000     0.574900000000     0.851800000000     0.0289858  
C        C      0.387600000000     0.565600000000     0.906300000000     0.0289858  
C        C      0.500100000000     0.663300000000     0.926800000000     0.0289858  
C        C      0.583400000000     0.656600000000     0.977300000000     0.0289858  
C        C      0.556500000000     0.549100000000     0.010000000000     0.0289858  
C        C      0.360800000000     0.460400000000     0.937400000000     0.0289858  
C        C      0.517500000000     0.966700000000     0.812400000000     0.0289858  
C        C      0.529400000000     0.977200000000     0.884000000000     0.0289858  
C        C      0.649600000000     0.001600000000     0.919100000000     0.0289858  
C        C      0.663700000000     0.017300000000     0.984000000000     0.0289858  
C        C      0.560400000000     0.012200000000     0.017700000000     0.0289858  
C        C      0.427500000000     0.970700000000     0.914900000000     0.0289858  
C        C      0.223200000000     0.923600000000     0.639600000000     0.0289858  
C        C      0.126900000000     0.952900000000     0.593600000000     0.0289858  
C        C      0.003700000000     0.931500000000     0.608400000000     0.0289858  
C        C      0.911500000000     0.950500000000     0.566900000000     0.0289858  
C        C      0.155600000000     0.993800000000     0.537900000000     0.0289858  
C        C      0.938400000000     0.988400000000     0.508100000000     0.0289858  
C        C      0.425100000000     0.704300000000     0.648200000000     0.0289858  
C        C      0.434400000000     0.612400000000     0.593700000000     0.0289858  
C        C      0.336700000000     0.499900000000     0.573200000000     0.0289858  
C        C      0.343400000000     0.416600000000     0.522700000000     0.0289858  
C        C      0.450900000000     0.443500000000     0.490000000000     0.0289858  
C        C      0.539600000000     0.639200000000     0.562600000000     0.0289858  
O        O      0.006600000000     0.613000000000     0.286540000000    -0.355608   
O        O      0.922860000000     0.409140000000     0.279670000000    -0.355608   
O        O      0.961300000000     0.336100000000     0.129240000000    -0.355608   
O        O      0.863200000000     0.183200000000     0.183300000000    -0.355608   
O        O      0.808500000000     0.510300000000     0.158750000000    -0.355608   
O        O      0.670300000000     0.332100000000     0.177260000000    -0.355608   
O        O      0.387000000000     0.993400000000     0.213460000000    -0.355608   
O        O      0.590860000000     0.077140000000     0.220330000000    -0.355608   
O        O      0.663900000000     0.038700000000     0.370760000000    -0.355608   
O        O      0.816800000000     0.136800000000     0.316700000000    -0.355608   
O        O      0.489700000000     0.191500000000     0.341250000000    -0.355608   
O        O      0.667900000000     0.329700000000     0.322740000000    -0.355608   
O        O      0.993400000000     0.387000000000     0.713460000000    -0.355608   
O        O      0.077140000000     0.590860000000     0.720330000000    -0.355608   
O        O      0.038700000000     0.663900000000     0.870760000000    -0.355608   
O        O      0.136800000000     0.816800000000     0.816700000000    -0.355608   
O        O      0.191500000000     0.489700000000     0.841250000000    -0.355608   
O        O      0.329700000000     0.667900000000     0.822740000000    -0.355608   
O        O      0.613000000000     0.006600000000     0.786540000000    -0.355608   
O        O      0.409140000000     0.922860000000     0.779670000000    -0.355608   
O        O      0.336100000000     0.961300000000     0.629240000000    -0.355608   
O        O      0.183200000000     0.863200000000     0.683300000000    -0.355608   
O        O      0.510300000000     0.808500000000     0.658750000000    -0.355608   
O        O      0.332100000000     0.670300000000     0.677260000000    -0.355608   


