data_ITETEH_original

_audit_creation_method RASPA-1.0
_audit_creation_date 2022-1-30
_audit_author_name 'Felipe Lopes de Oliveira <felipe.lopes.oliveira@ibm.com>'

_cell_length_a    8.6716
_cell_length_b    8.6716
_cell_length_c    10.865
_cell_angle_alpha 90
_cell_angle_beta  90
_cell_angle_gamma 120
_cell_volume      707.553

_symmetry_cell_setting          triclinic
_symmetry_space_group_name_Hall 'P 1'
_symmetry_space_group_name_H-M  'P 1'
_symmetry_Int_Tables_number     1

_symmetry_equiv_pos_as_xyz 'x,y,z'

loop_
_atom_site_label
_atom_site_type_symbol
_atom_site_fract_x
_atom_site_fract_y
_atom_site_fract_z
_atom_site_charge
Fe       Fe     0.941820000000     0.000000000000     0.500000000000     0.990367   
Fe       Fe     0.058180000000     0.058180000000     0.166670000000     0.990367   
Fe       Fe     0.000000000000     0.941820000000     0.833330000000     0.990367   
H        H      0.390800000000     0.488200000000     0.490200000000     0.101258   
H        H      0.097400000000     0.609200000000     0.156870000000     0.101258   
H        H      0.511800000000     0.902600000000     0.823530000000     0.101258   
H        H      0.902600000000     0.511800000000     0.509800000000     0.101258   
H        H      0.488200000000     0.390800000000     0.843130000000     0.101258   
H        H      0.609200000000     0.097400000000     0.176470000000     0.101258   
C        C      0.624600000000     0.685200000000     0.562500000000     0.0640346  
C        C      0.465100000000     0.524300000000     0.560900000000     0.0640346  
C        C      0.060600000000     0.375400000000     0.229170000000     0.0640346  
C        C      0.059200000000     0.534900000000     0.227570000000     0.0640346  
C        C      0.314800000000     0.939400000000     0.895830000000     0.0640346  
C        C      0.475700000000     0.940800000000     0.894230000000     0.0640346  
C        C      0.939400000000     0.314800000000     0.437500000000     0.0640346  
C        C      0.940800000000     0.475700000000     0.439100000000     0.0640346  
C        C      0.685200000000     0.624600000000     0.770830000000     0.0640346  
C        C      0.524300000000     0.465100000000     0.772430000000     0.0640346  
C        C      0.375400000000     0.060600000000     0.104170000000     0.0640346  
C        C      0.534900000000     0.059200000000     0.105770000000     0.0640346  
C        C      0.730600000000     0.730600000000     0.666670000000     0.0640346  
C        C      0.416400000000     0.416400000000     0.666670000000     0.0640346  
C        C      0.245300000000     0.245300000000     0.666670000000     0.0640346  
C        C      0.000000000000     0.269400000000     0.333330000000     0.0640346  
C        C      0.000000000000     0.583600000000     0.333330000000     0.0640346  
C        C      0.000000000000     0.754700000000     0.333330000000     0.0640346  
C        C      0.269400000000     0.000000000000     0.000000000000     0.0640346  
C        C      0.583600000000     0.000000000000     0.000000000000     0.0640346  
C        C      0.754700000000     0.000000000000     0.000000000000     0.0640346  
O        O      0.687100000000     0.807500000000     0.470300000000    -0.328225   
O        O      0.189100000000     0.166400000000     0.564700000000    -0.328225   
O        O      0.120400000000     0.312900000000     0.136970000000    -0.328225   
O        O      0.977300000000     0.810900000000     0.231370000000    -0.328225   
O        O      0.192500000000     0.879600000000     0.803630000000    -0.328225   
O        O      0.833600000000     0.022700000000     0.898030000000    -0.328225   
O        O      0.879600000000     0.192500000000     0.529700000000    -0.328225   
O        O      0.022700000000     0.833600000000     0.435300000000    -0.328225   
O        O      0.807500000000     0.687100000000     0.863030000000    -0.328225   
O        O      0.166400000000     0.189100000000     0.768630000000    -0.328225   
O        O      0.312900000000     0.120400000000     0.196370000000    -0.328225   
O        O      0.810900000000     0.977300000000     0.101970000000    -0.328225   
O        O      0.887400000000     0.887400000000     0.666670000000    -0.328225   
O        O      0.000000000000     0.112600000000     0.333330000000    -0.328225   
O        O      0.112600000000     0.000000000000     0.000000000000    -0.328225   


