data_IXUREZ_original

_audit_creation_method RASPA-1.0
_audit_creation_date 2022-1-30
_audit_author_name 'Felipe Lopes de Oliveira <felipe.lopes.oliveira@ibm.com>'

_cell_length_a    10.877
_cell_length_b    17.619
_cell_length_c    20.499
_cell_angle_alpha 110.788
_cell_angle_beta  93.326
_cell_angle_gamma 90.408
_cell_volume      3664.92

_symmetry_cell_setting          triclinic
_symmetry_space_group_name_Hall 'P 1'
_symmetry_space_group_name_H-M  'P 1'
_symmetry_Int_Tables_number     1

_symmetry_equiv_pos_as_xyz 'x,y,z'

loop_
_atom_site_label
_atom_site_type_symbol
_atom_site_fract_x
_atom_site_fract_y
_atom_site_fract_z
_atom_site_charge
Zn       Zn     0.183250000000     0.438820000000     0.227380000000     0.474387   
Zn       Zn     0.178250000000     0.558220000000     0.155160000000     0.474387   
Zn       Zn     0.143400000000     0.939740000000     0.724370000000     0.474387   
Zn       Zn     0.132340000000     0.058010000000     0.650830000000     0.474387   
Zn       Zn     0.816750000000     0.561180000000     0.772620000000     0.474387   
Zn       Zn     0.821750000000     0.441780000000     0.844840000000     0.474387   
Zn       Zn     0.856600000000     0.060260000000     0.275630000000     0.474387   
Zn       Zn     0.867660000000     0.941990000000     0.349170000000     0.474387   
H        H      0.216700000000     0.221300000000     0.037800000000     0.0667534  
H        H      0.204900000000     0.119600000000     0.933100000000     0.0667534  
H        H      0.139700000000     0.278100000000     0.838200000000     0.0667534  
H        H      0.148200000000     0.382800000000     0.945300000000     0.0667534  
H        H      0.577100000000     0.404600000000     0.228400000000     0.0667534  
H        H      0.786200000000     0.400000000000     0.226300000000     0.0667534  
H        H      0.788000000000     0.581300000000     0.155600000000     0.0667534  
H        H      0.578900000000     0.587200000000     0.158200000000     0.0667534  
H        H      0.153100000000     0.616600000000     0.432600000000     0.0667534  
H        H      0.126100000000     0.718800000000     0.537700000000     0.0667534  
H        H      0.135100000000     0.881200000000     0.441600000000     0.0667534  
H        H      0.154100000000     0.778800000000     0.337300000000     0.0667534  
H        H      0.159900000000     0.549900000000     0.006600000000     0.0667534  
H        H      0.132800000000     0.631400000000     0.943200000000     0.0667534  
H        H      0.151000000000     0.823300000000     0.122800000000     0.0667534  
H        H      0.177300000000     0.735700000000     0.182300000000     0.0667534  
H        H      0.233300000000     0.867400000000     0.932400000000     0.0667534  
H        H      0.260800000000     0.928900000000     0.854900000000     0.0667534  
H        H      0.006600000000     0.793100000000     0.725600000000     0.0667534  
H        H      0.972500000000     0.727900000000     0.799600000000     0.0667534  
H        H      0.543600000000     0.909900000000     0.733200000000     0.0667534  
H        H      0.756600000000     0.910600000000     0.729400000000     0.0667534  
H        H      0.737000000000     0.085800000000     0.651400000000     0.0667534  
H        H      0.524400000000     0.082700000000     0.652800000000     0.0667534  
H        H      0.153800000000     0.053300000000     0.505500000000     0.0667534  
H        H      0.190500000000     0.138000000000     0.446000000000     0.0667534  
H        H      0.189800000000     0.325300000000     0.630000000000     0.0667534  
H        H      0.152700000000     0.234800000000     0.683500000000     0.0667534  
H        H      0.391000000000     0.253600000000     0.327900000000     0.0667534  
H        H      0.345100000000     0.313100000000     0.245300000000     0.0667534  
H        H      0.066200000000     0.416200000000     0.345600000000     0.0667534  
H        H      0.097300000000     0.357800000000     0.426800000000     0.0667534  
H        H      0.126100000000     0.840400000000     0.011200000000     0.0667534  
H        H      0.019900000000     0.713700000000     0.908600000000     0.0667534  
H        H      0.216600000000     0.348300000000     0.520600000000     0.0667534  
H        H      0.335600000000     0.229700000000     0.428600000000     0.0667534  
H        H      0.783300000000     0.778700000000     0.962200000000     0.0667534  
H        H      0.795100000000     0.880400000000     0.066900000000     0.0667534  
H        H      0.860300000000     0.721900000000     0.161800000000     0.0667534  
H        H      0.851800000000     0.617200000000     0.054700000000     0.0667534  
H        H      0.422900000000     0.595400000000     0.771600000000     0.0667534  
H        H      0.213800000000     0.600000000000     0.773700000000     0.0667534  
H        H      0.212000000000     0.418700000000     0.844400000000     0.0667534  
H        H      0.421100000000     0.412800000000     0.841800000000     0.0667534  
H        H      0.846900000000     0.383400000000     0.567400000000     0.0667534  
H        H      0.873900000000     0.281200000000     0.462300000000     0.0667534  
H        H      0.864900000000     0.118800000000     0.558400000000     0.0667534  
H        H      0.845900000000     0.221200000000     0.662700000000     0.0667534  
H        H      0.840100000000     0.450100000000     0.993400000000     0.0667534  
H        H      0.867200000000     0.368600000000     0.056800000000     0.0667534  
H        H      0.849000000000     0.176700000000     0.877200000000     0.0667534  
H        H      0.822700000000     0.264300000000     0.817700000000     0.0667534  
H        H      0.766700000000     0.132600000000     0.067600000000     0.0667534  
H        H      0.739200000000     0.071100000000     0.145100000000     0.0667534  
H        H      0.993400000000     0.206900000000     0.274400000000     0.0667534  
H        H      0.027500000000     0.272100000000     0.200400000000     0.0667534  
H        H      0.456400000000     0.090100000000     0.266800000000     0.0667534  
H        H      0.243400000000     0.089400000000     0.270600000000     0.0667534  
H        H      0.263000000000     0.914200000000     0.348600000000     0.0667534  
H        H      0.475600000000     0.917300000000     0.347200000000     0.0667534  
H        H      0.846200000000     0.946700000000     0.494500000000     0.0667534  
H        H      0.809500000000     0.862000000000     0.554000000000     0.0667534  
H        H      0.810200000000     0.674700000000     0.370000000000     0.0667534  
H        H      0.847300000000     0.765200000000     0.316500000000     0.0667534  
H        H      0.609000000000     0.746400000000     0.672100000000     0.0667534  
H        H      0.654900000000     0.686900000000     0.754700000000     0.0667534  
H        H      0.933800000000     0.583800000000     0.654400000000     0.0667534  
H        H      0.902700000000     0.642200000000     0.573200000000     0.0667534  
H        H      0.873900000000     0.159600000000     0.988800000000     0.0667534  
H        H      0.980100000000     0.286300000000     0.091400000000     0.0667534  
H        H      0.783400000000     0.651700000000     0.479400000000     0.0667534  
H        H      0.664400000000     0.770300000000     0.571400000000     0.0667534  
C        C      0.179700000000     0.379600000000     0.072800000000     0.0378715  
C        C      0.180200000000     0.312400000000     0.003500000000     0.0378715  
C        C      0.199100000000     0.233100000000     0.997600000000     0.0378715  
C        C      0.192800000000     0.172600000000     0.935400000000     0.0378715  
C        C      0.168600000000     0.187900000000     0.874700000000     0.0378715  
C        C      0.153600000000     0.266800000000     0.878900000000     0.0378715  
C        C      0.158900000000     0.329600000000     0.942900000000     0.0378715  
C        C      0.156400000000     0.120400000000     0.804600000000     0.0378715  
C        C      0.416200000000     0.499200000000     0.195800000000     0.0378715  
C        C      0.554300000000     0.497700000000     0.194500000000     0.0378715  
C        C      0.619500000000     0.441400000000     0.214000000000     0.0378715  
C        C      0.744300000000     0.438500000000     0.212800000000     0.0378715  
C        C      0.808400000000     0.491600000000     0.191800000000     0.0378715  
C        C      0.745400000000     0.545700000000     0.171100000000     0.0378715  
C        C      0.620000000000     0.549100000000     0.172500000000     0.0378715  
C        C      0.945400000000     0.488300000000     0.190200000000     0.0378715  
C        C      0.171300000000     0.619800000000     0.305800000000     0.0378715  
C        C      0.157100000000     0.686000000000     0.373400000000     0.0378715  
C        C      0.148900000000     0.669900000000     0.434400000000     0.0378715  
C        C      0.134800000000     0.731200000000     0.497700000000     0.0378715  
C        C      0.133800000000     0.811200000000     0.501400000000     0.0378715  
C        C      0.139200000000     0.827900000000     0.440000000000     0.0378715  
C        C      0.150600000000     0.766600000000     0.377800000000     0.0378715  
C        C      0.127700000000     0.878800000000     0.570800000000     0.0378715  
C        C      0.156800000000     0.605600000000     0.030300000000     0.0378715  
C        C      0.140500000000     0.653800000000     0.991800000000     0.0378715  
C        C      0.135500000000     0.736700000000     0.025800000000     0.0378715  
C        C      0.151300000000     0.767600000000     0.098500000000     0.0378715  
C        C      0.167200000000     0.714700000000     0.133800000000     0.0378715  
C        C      0.094000000000     0.794400000000     0.878400000000     0.0378715  
C        C      0.183300000000     0.852300000000     0.891200000000     0.0378715  
C        C      0.199900000000     0.888200000000     0.843900000000     0.0378715  
C        C      0.051900000000     0.809100000000     0.768400000000     0.0378715  
C        C      0.030200000000     0.770600000000     0.812600000000     0.0378715  
C        C      0.372900000000     0.993500000000     0.692500000000     0.0378715  
C        C      0.511400000000     0.994800000000     0.691800000000     0.0378715  
C        C      0.581900000000     0.945200000000     0.715600000000     0.0378715  
C        C      0.710300000000     0.946000000000     0.714200000000     0.0378715  
C        C      0.766700000000     0.999300000000     0.690200000000     0.0378715  
C        C      0.698400000000     0.049300000000     0.667700000000     0.0378715  
C        C      0.570200000000     0.047400000000     0.668500000000     0.0378715  
C        C      0.902400000000     0.999500000000     0.688400000000     0.0378715  
C        C      0.162500000000     0.108800000000     0.530600000000     0.0378715  
C        C      0.185700000000     0.158800000000     0.494200000000     0.0378715  
C        C      0.201600000000     0.240000000000     0.530800000000     0.0378715  
C        C      0.184900000000     0.269900000000     0.604300000000     0.0378715  
C        C      0.161800000000     0.215600000000     0.635600000000     0.0378715  
C        C      0.249800000000     0.303600000000     0.389100000000     0.0378715  
C        C      0.324300000000     0.287400000000     0.332400000000     0.0378715  
C        C      0.295900000000     0.323100000000     0.283000000000     0.0378715  
C        C      0.132800000000     0.382400000000     0.341600000000     0.0378715  
C        C      0.151600000000     0.349100000000     0.391600000000     0.0378715  
C        C      0.820300000000     0.620400000000     0.927200000000     0.0378715  
C        C      0.819800000000     0.687600000000     0.996500000000     0.0378715  
C        C      0.800900000000     0.766900000000     0.002400000000     0.0378715  
C        C      0.807200000000     0.827400000000     0.064600000000     0.0378715  
C        C      0.831400000000     0.812100000000     0.125300000000     0.0378715  
C        C      0.846400000000     0.733200000000     0.121100000000     0.0378715  
C        C      0.841100000000     0.670400000000     0.057100000000     0.0378715  
C        C      0.843600000000     0.879600000000     0.195400000000     0.0378715  
C        C      0.583800000000     0.500800000000     0.804200000000     0.0378715  
C        C      0.445700000000     0.502300000000     0.805500000000     0.0378715  
C        C      0.380500000000     0.558600000000     0.786000000000     0.0378715  
C        C      0.255700000000     0.561500000000     0.787200000000     0.0378715  
C        C      0.191600000000     0.508400000000     0.808200000000     0.0378715  
C        C      0.254600000000     0.454300000000     0.828900000000     0.0378715  
C        C      0.380000000000     0.450900000000     0.827500000000     0.0378715  
C        C      0.054600000000     0.511700000000     0.809800000000     0.0378715  
C        C      0.828700000000     0.380200000000     0.694200000000     0.0378715  
C        C      0.842900000000     0.314000000000     0.626600000000     0.0378715  
C        C      0.851100000000     0.330100000000     0.565600000000     0.0378715  
C        C      0.865200000000     0.268800000000     0.502300000000     0.0378715  
C        C      0.866200000000     0.188800000000     0.498600000000     0.0378715  
C        C      0.860800000000     0.172100000000     0.560000000000     0.0378715  
C        C      0.849400000000     0.233400000000     0.622200000000     0.0378715  
C        C      0.872300000000     0.121200000000     0.429200000000     0.0378715  
C        C      0.843200000000     0.394400000000     0.969700000000     0.0378715  
C        C      0.859500000000     0.346200000000     0.008200000000     0.0378715  
C        C      0.864500000000     0.263300000000     0.974200000000     0.0378715  
C        C      0.848700000000     0.232400000000     0.901500000000     0.0378715  
C        C      0.832800000000     0.285300000000     0.866200000000     0.0378715  
C        C      0.906000000000     0.205600000000     0.121600000000     0.0378715  
C        C      0.816700000000     0.147700000000     0.108800000000     0.0378715  
C        C      0.800100000000     0.111800000000     0.156100000000     0.0378715  
C        C      0.948100000000     0.190900000000     0.231600000000     0.0378715  
C        C      0.969800000000     0.229400000000     0.187400000000     0.0378715  
C        C      0.627100000000     0.006500000000     0.307500000000     0.0378715  
C        C      0.488600000000     0.005200000000     0.308200000000     0.0378715  
C        C      0.418100000000     0.054800000000     0.284400000000     0.0378715  
C        C      0.289700000000     0.054000000000     0.285800000000     0.0378715  
C        C      0.233300000000     0.000700000000     0.309800000000     0.0378715  
C        C      0.301600000000     0.950700000000     0.332300000000     0.0378715  
C        C      0.429800000000     0.952600000000     0.331500000000     0.0378715  
C        C      0.097600000000     0.000500000000     0.311600000000     0.0378715  
C        C      0.837500000000     0.891200000000     0.469400000000     0.0378715  
C        C      0.814300000000     0.841200000000     0.505800000000     0.0378715  
C        C      0.798400000000     0.760000000000     0.469200000000     0.0378715  
C        C      0.815100000000     0.730100000000     0.395700000000     0.0378715  
C        C      0.838200000000     0.784400000000     0.364400000000     0.0378715  
C        C      0.750200000000     0.696400000000     0.610900000000     0.0378715  
C        C      0.675700000000     0.712600000000     0.667600000000     0.0378715  
C        C      0.704100000000     0.676900000000     0.717000000000     0.0378715  
C        C      0.867200000000     0.617600000000     0.658400000000     0.0378715  
C        C      0.848400000000     0.650900000000     0.608400000000     0.0378715  
N        N      0.168700000000     0.633000000000     0.100600000000    -0.191825   
N        N      0.112200000000     0.789000000000     0.990900000000    -0.191825   
N        N      0.066000000000     0.757000000000     0.922700000000    -0.191825   
N        N      0.136200000000     0.869900000000     0.783500000000    -0.191825   
N        N      0.151500000000     0.134500000000     0.599900000000    -0.191825   
N        N      0.230900000000     0.297600000000     0.500700000000    -0.191825   
N        N      0.283800000000     0.268200000000     0.437500000000    -0.191825   
N        N      0.200600000000     0.371000000000     0.288100000000    -0.191825   
N        N      0.831300000000     0.367000000000     0.899400000000    -0.191825   
N        N      0.887800000000     0.211000000000     0.009100000000    -0.191825   
N        N      0.934000000000     0.243000000000     0.077300000000    -0.191825   
N        N      0.863800000000     0.130100000000     0.216500000000    -0.191825   
N        N      0.848500000000     0.865500000000     0.400100000000    -0.191825   
N        N      0.769100000000     0.702400000000     0.499300000000    -0.191825   
N        N      0.716200000000     0.731800000000     0.562500000000    -0.191825   
N        N      0.799400000000     0.629000000000     0.711900000000    -0.191825   
O        O      0.168700000000     0.359500000000     0.125850000000    -0.295962   
O        O      0.188000000000     0.451300000000     0.074790000000    -0.295962   
O        O      0.155700000000     0.049400000000     0.805000000000    -0.295962   
O        O      0.146900000000     0.137700000000     0.751000000000    -0.295962   
O        O      0.363700000000     0.449500000000     0.215500000000    -0.295962   
O        O      0.363500000000     0.550400000000     0.174900000000    -0.295962   
O        O      0.996500000000     0.528000000000     0.159300000000    -0.295962   
O        O      0.999000000000     0.446100000000     0.220600000000    -0.295962   
O        O      0.186600000000     0.550000000000     0.306010000000    -0.295962   
O        O      0.168100000000     0.638600000000     0.252620000000    -0.295962   
O        O      0.132700000000     0.860900000000     0.625000000000    -0.295962   
O        O      0.123000000000     0.950100000000     0.570900000000    -0.295962   
O        O      0.326700000000     0.947200000000     0.719000000000    -0.295962   
O        O      0.316100000000     0.037800000000     0.666700000000    -0.295962   
O        O      0.959900000000     0.957600000000     0.715600000000    -0.295962   
O        O      0.948900000000     0.044600000000     0.659500000000    -0.295962   
O        O      0.831300000000     0.640500000000     0.874150000000    -0.295962   
O        O      0.812000000000     0.548700000000     0.925210000000    -0.295962   
O        O      0.844300000000     0.950600000000     0.195000000000    -0.295962   
O        O      0.853100000000     0.862300000000     0.249000000000    -0.295962   
O        O      0.636300000000     0.550500000000     0.784500000000    -0.295962   
O        O      0.636500000000     0.449600000000     0.825100000000    -0.295962   
O        O      0.003500000000     0.472000000000     0.840700000000    -0.295962   
O        O      0.001000000000     0.553900000000     0.779400000000    -0.295962   
O        O      0.813400000000     0.450000000000     0.693990000000    -0.295962   
O        O      0.831900000000     0.361400000000     0.747380000000    -0.295962   
O        O      0.867300000000     0.139100000000     0.375000000000    -0.295962   
O        O      0.877000000000     0.049900000000     0.429100000000    -0.295962   
O        O      0.673300000000     0.052800000000     0.281000000000    -0.295962   
O        O      0.683900000000     0.962200000000     0.333300000000    -0.295962   
O        O      0.040100000000     0.042400000000     0.284400000000    -0.295962   
O        O      0.051100000000     0.955400000000     0.340500000000    -0.295962   


