data_IXURID_original

_audit_creation_method RASPA-1.0
_audit_creation_date 2022-1-30
_audit_author_name 'Felipe Lopes de Oliveira <felipe.lopes.oliveira@ibm.com>'

_cell_length_a    10.9028
_cell_length_b    10.9453
_cell_length_c    15.8533
_cell_angle_alpha 88.159
_cell_angle_beta  80.542
_cell_angle_gamma 85.314
_cell_volume      1859.55

_symmetry_cell_setting          triclinic
_symmetry_space_group_name_Hall 'P 1'
_symmetry_space_group_name_H-M  'P 1'
_symmetry_Int_Tables_number     1

_symmetry_equiv_pos_as_xyz 'x,y,z'

loop_
_atom_site_label
_atom_site_type_symbol
_atom_site_fract_x
_atom_site_fract_y
_atom_site_fract_z
_atom_site_charge
Zn       Zn     0.717580000000     0.842280000000     0.593700000000     0.472851   
Zn       Zn     0.670300000000     0.837130000000     0.784760000000     0.472851   
Zn       Zn     0.282420000000     0.157720000000     0.406300000000     0.472851   
Zn       Zn     0.329700000000     0.162870000000     0.215240000000     0.472851   
H        H      0.730000000000     0.448200000000     0.567900000000     0.0626869  
H        H      0.726100000000     0.238800000000     0.567000000000     0.0626869  
H        H      0.652600000000     0.231100000000     0.820100000000     0.0626869  
H        H      0.660400000000     0.439200000000     0.820800000000     0.0626869  
H        H      0.267300000000     0.818900000000     0.815400000000     0.0626869  
H        H      0.057800000000     0.810400000000     0.811300000000     0.0626869  
H        H      0.122900000000     0.859300000000     0.556700000000     0.0626869  
H        H      0.330200000000     0.868300000000     0.560700000000     0.0626869  
H        H      0.580300000000     0.830300000000     0.311000000000     0.0626869  
H        H      0.564000000000     0.840500000000     0.455700000000     0.0626869  
H        H      0.921800000000     0.839000000000     0.443500000000     0.0626869  
H        H      0.951600000000     0.830700000000     0.296900000000     0.0626869  
H        H      0.805500000000     0.731100000000     0.919400000000     0.0626869  
H        H      0.820400000000     0.756400000000     0.061300000000     0.0626869  
H        H      0.516200000000     0.960600000000     0.934900000000     0.0626869  
H        H      0.866900000000     0.805400000000     0.168600000000     0.0626869  
H        H      0.611800000000     0.949700000000     0.195700000000     0.0626869  
H        H      0.270000000000     0.551800000000     0.432100000000     0.0626869  
H        H      0.273900000000     0.761200000000     0.433000000000     0.0626869  
H        H      0.347400000000     0.768900000000     0.179900000000     0.0626869  
H        H      0.339600000000     0.560800000000     0.179200000000     0.0626869  
H        H      0.732700000000     0.181100000000     0.184600000000     0.0626869  
H        H      0.942200000000     0.189600000000     0.188700000000     0.0626869  
H        H      0.877100000000     0.140700000000     0.443300000000     0.0626869  
H        H      0.669800000000     0.131700000000     0.439300000000     0.0626869  
H        H      0.419700000000     0.169700000000     0.689000000000     0.0626869  
H        H      0.436000000000     0.159500000000     0.544300000000     0.0626869  
H        H      0.078200000000     0.161000000000     0.556500000000     0.0626869  
H        H      0.048400000000     0.169300000000     0.703100000000     0.0626869  
H        H      0.194500000000     0.268900000000     0.080600000000     0.0626869  
H        H      0.179600000000     0.243600000000     0.938700000000     0.0626869  
H        H      0.483800000000     0.039400000000     0.065100000000     0.0626869  
H        H      0.133100000000     0.194600000000     0.831400000000     0.0626869  
H        H      0.388200000000     0.050300000000     0.804300000000     0.0626869  
C        C      0.696900000000     0.604600000000     0.693600000000     0.0385162  
C        C      0.694700000000     0.466700000000     0.694500000000     0.0385162  
C        C      0.714600000000     0.404800000000     0.619400000000     0.0385162  
C        C      0.712300000000     0.278900000000     0.619000000000     0.0385162  
C        C      0.690200000000     0.212500000000     0.692900000000     0.0385162  
C        C      0.669300000000     0.274400000000     0.768600000000     0.0385162  
C        C      0.673000000000     0.399300000000     0.768800000000     0.0385162  
C        C      0.688000000000     0.075400000000     0.692100000000     0.0385162  
C        C      0.458100000000     0.847100000000     0.690600000000     0.0385162  
C        C      0.320700000000     0.843600000000     0.688400000000     0.0385162  
C        C      0.238200000000     0.827100000000     0.763400000000     0.0385162  
C        C      0.112600000000     0.822800000000     0.760900000000     0.0385162  
C        C      0.067100000000     0.836800000000     0.683900000000     0.0385162  
C        C      0.151400000000     0.852100000000     0.608900000000     0.0385162  
C        C      0.275300000000     0.856500000000     0.611200000000     0.0385162  
C        C      0.930800000000     0.833900000000     0.682500000000     0.0385162  
C        C      0.767000000000     0.833600000000     0.288800000000     0.0385162  
C        C      0.651000000000     0.833200000000     0.336400000000     0.0385162  
C        C      0.643200000000     0.837500000000     0.423000000000     0.0385162  
C        C      0.852600000000     0.836900000000     0.416500000000     0.0385162  
C        C      0.871700000000     0.833300000000     0.328600000000     0.0385162  
C        C      0.744400000000     0.782600000000     0.951400000000     0.0385162  
C        C      0.755900000000     0.798000000000     0.037500000000     0.0385162  
C        C      0.667500000000     0.876200000000     0.085300000000     0.0385162  
C        C      0.586500000000     0.941500000000     0.042300000000     0.0385162  
C        C      0.578200000000     0.917800000000     0.960300000000     0.0385162  
C        C      0.303100000000     0.395400000000     0.306400000000     0.0385162  
C        C      0.305300000000     0.533300000000     0.305500000000     0.0385162  
C        C      0.285400000000     0.595200000000     0.380600000000     0.0385162  
C        C      0.287700000000     0.721100000000     0.381000000000     0.0385162  
C        C      0.309800000000     0.787500000000     0.307100000000     0.0385162  
C        C      0.330700000000     0.725600000000     0.231400000000     0.0385162  
C        C      0.327000000000     0.600700000000     0.231200000000     0.0385162  
C        C      0.312000000000     0.924600000000     0.307900000000     0.0385162  
C        C      0.541900000000     0.152900000000     0.309400000000     0.0385162  
C        C      0.679300000000     0.156400000000     0.311600000000     0.0385162  
C        C      0.761800000000     0.172900000000     0.236600000000     0.0385162  
C        C      0.887400000000     0.177200000000     0.239100000000     0.0385162  
C        C      0.932900000000     0.163200000000     0.316100000000     0.0385162  
C        C      0.848600000000     0.147900000000     0.391100000000     0.0385162  
C        C      0.724700000000     0.143500000000     0.388800000000     0.0385162  
C        C      0.069200000000     0.166100000000     0.317500000000     0.0385162  
C        C      0.233000000000     0.166400000000     0.711200000000     0.0385162  
C        C      0.349000000000     0.166800000000     0.663600000000     0.0385162  
C        C      0.356800000000     0.162500000000     0.577000000000     0.0385162  
C        C      0.147400000000     0.163100000000     0.583500000000     0.0385162  
C        C      0.128300000000     0.166700000000     0.671400000000     0.0385162  
C        C      0.255600000000     0.217400000000     0.048600000000     0.0385162  
C        C      0.244100000000     0.202000000000     0.962500000000     0.0385162  
C        C      0.332500000000     0.123800000000     0.914700000000     0.0385162  
C        C      0.413500000000     0.058500000000     0.957700000000     0.0385162  
C        C      0.421800000000     0.082200000000     0.039700000000     0.0385162  
N        N      0.659300000000     0.831900000000     0.912820000000    -0.165153   
N        N      0.740500000000     0.837600000000     0.464850000000    -0.165153   
N        N      0.776600000000     0.868100000000     0.199900000000    -0.165153   
N        N      0.672500000000     0.906900000000     0.166200000000    -0.165153   
N        N      0.340700000000     0.168100000000     0.087180000000    -0.165153   
N        N      0.259500000000     0.162400000000     0.535150000000    -0.165153   
N        N      0.223400000000     0.131900000000     0.800100000000    -0.165153   
N        N      0.327500000000     0.093100000000     0.833800000000    -0.165153   
O        O      0.859800000000     0.826000000000     0.752220000000    -0.294023   
O        O      0.897400000000     0.839500000000     0.610310000000    -0.294023   
O        O      0.491200000000     0.851800000000     0.762640000000    -0.294023   
O        O      0.530400000000     0.844600000000     0.620530000000    -0.294023   
O        O      0.673000000000     0.655100000000     0.764940000000    -0.294023   
O        O      0.721900000000     0.658000000000     0.623750000000    -0.294023   
O        O      0.674100000000     0.020700000000     0.763450000000    -0.294023   
O        O      0.700500000000     0.026200000000     0.621280000000    -0.294023   
O        O      0.140200000000     0.174000000000     0.247780000000    -0.294023   
O        O      0.102600000000     0.160500000000     0.389690000000    -0.294023   
O        O      0.508800000000     0.148200000000     0.237360000000    -0.294023   
O        O      0.469600000000     0.155400000000     0.379470000000    -0.294023   
O        O      0.327000000000     0.344900000000     0.235060000000    -0.294023   
O        O      0.278100000000     0.342000000000     0.376250000000    -0.294023   
O        O      0.325900000000     0.979300000000     0.236550000000    -0.294023   
O        O      0.299500000000     0.973800000000     0.378720000000    -0.294023   


