data_JASNAT_original

_audit_creation_method RASPA-1.0
_audit_creation_date 2022-1-29
_audit_author_name 'Felipe Lopes de Oliveira <felipe.lopes.oliveira@ibm.com>'

_cell_length_a    10.883
_cell_length_b    10.9258
_cell_length_c    14.0658
_cell_angle_alpha 92.417
_cell_angle_beta  90.099
_cell_angle_gamma 101.723
_cell_volume      1636.07

_symmetry_cell_setting          triclinic
_symmetry_space_group_name_Hall 'P 1'
_symmetry_space_group_name_H-M  'P 1'
_symmetry_Int_Tables_number     1

_symmetry_equiv_pos_as_xyz 'x,y,z'

loop_
_atom_site_label
_atom_site_type_symbol
_atom_site_fract_x
_atom_site_fract_y
_atom_site_fract_z
_atom_site_charge
Zn       Zn     0.265040000000     0.344380000000     0.890780000000     0.471005   
Zn       Zn     0.262090000000     0.331560000000     0.681860000000     0.471005   
Zn       Zn     0.734960000000     0.655620000000     0.109220000000     0.471005   
Zn       Zn     0.737910000000     0.668440000000     0.318140000000     0.471005   
H        H      0.661800000000     0.356800000000     0.930600000000     0.0539811  
H        H      0.873700000000     0.349200000000     0.929800000000     0.0539811  
H        H      0.654000000000     0.326500000000     0.643900000000     0.0539811  
H        H      0.255200000000     0.717400000000     0.643700000000     0.0539811  
H        H      0.265200000000     0.744400000000     0.927100000000     0.0539811  
H        H      0.250300000000     0.953000000000     0.924200000000     0.0539811  
H        H      0.237800000000     0.927400000000     0.639300000000     0.0539811  
H        H      0.865700000000     0.319500000000     0.643300000000     0.0539811  
H        H      0.084900000000     0.319500000000     0.521300000000     0.0539811  
H        H      0.079100000000     0.314800000000     0.358600000000     0.0539811  
H        H      0.447900000000     0.362300000000     0.359500000000     0.0539811  
H        H      0.443400000000     0.358500000000     0.522600000000     0.0539811  
H        H      0.075000000000     0.324200000000     0.212200000000     0.0539811  
H        H      0.451200000000     0.353300000000     0.214400000000     0.0539811  
H        H      0.081900000000     0.323900000000     0.049600000000     0.0539811  
H        H      0.445500000000     0.351200000000     0.051600000000     0.0539811  
H        H      0.338200000000     0.643200000000     0.069400000000     0.0539811  
H        H      0.126300000000     0.650800000000     0.070200000000     0.0539811  
H        H      0.346000000000     0.673500000000     0.356100000000     0.0539811  
H        H      0.744800000000     0.282600000000     0.356300000000     0.0539811  
H        H      0.734800000000     0.255600000000     0.072900000000     0.0539811  
H        H      0.749700000000     0.047000000000     0.075800000000     0.0539811  
H        H      0.762200000000     0.072600000000     0.360700000000     0.0539811  
H        H      0.134300000000     0.680500000000     0.356700000000     0.0539811  
H        H      0.915100000000     0.680500000000     0.478700000000     0.0539811  
H        H      0.920900000000     0.685200000000     0.641400000000     0.0539811  
H        H      0.552100000000     0.637700000000     0.640500000000     0.0539811  
H        H      0.556600000000     0.641500000000     0.477400000000     0.0539811  
H        H      0.925000000000     0.675800000000     0.787800000000     0.0539811  
H        H      0.548800000000     0.646700000000     0.785600000000     0.0539811  
H        H      0.918100000000     0.676100000000     0.950400000000     0.0539811  
H        H      0.554500000000     0.648800000000     0.948400000000     0.0539811  
C        C      0.499700000000     0.349500000000     0.787600000000     0.0336587  
C        C      0.636300000000     0.342900000000     0.787900000000     0.0336587  
C        C      0.702600000000     0.349200000000     0.872500000000     0.0336587  
C        C      0.829100000000     0.344600000000     0.872000000000     0.0336587  
C        C      0.698500000000     0.331300000000     0.701800000000     0.0336587  
C        C      0.279300000000     0.577400000000     0.787600000000     0.0336587  
C        C      0.266600000000     0.711600000000     0.786000000000     0.0336587  
C        C      0.255600000000     0.765300000000     0.700800000000     0.0336587  
C        C      0.261800000000     0.781500000000     0.868300000000     0.0336587  
C        C      0.242400000000     0.098500000000     0.778200000000     0.0336587  
C        C      0.245100000000     0.961200000000     0.782000000000     0.0336587  
C        C      0.252100000000     0.906300000000     0.866700000000     0.0336587  
C        C      0.244900000000     0.891200000000     0.697900000000     0.0336587  
C        C      0.027900000000     0.328300000000     0.787200000000     0.0336587  
C        C      0.889500000000     0.333100000000     0.787200000000     0.0336587  
C        C      0.824300000000     0.326800000000     0.701300000000     0.0336587  
C        C      0.160700000000     0.325900000000     0.488200000000     0.0336587  
C        C      0.156900000000     0.324600000000     0.390200000000     0.0336587  
C        C      0.263400000000     0.337200000000     0.338800000000     0.0336587  
C        C      0.370300000000     0.351200000000     0.390600000000     0.0336587  
C        C      0.367100000000     0.349300000000     0.489000000000     0.0336587  
C        C      0.262900000000     0.337600000000     0.234400000000     0.0336587  
C        C      0.152300000000     0.329800000000     0.181200000000     0.0336587  
C        C      0.374000000000     0.346900000000     0.182500000000     0.0336587  
C        C      0.157400000000     0.330500000000     0.083900000000     0.0336587  
C        C      0.369900000000     0.346600000000     0.084800000000     0.0336587  
C        C      0.500300000000     0.650500000000     0.212400000000     0.0336587  
C        C      0.363700000000     0.657100000000     0.212100000000     0.0336587  
C        C      0.297400000000     0.650800000000     0.127500000000     0.0336587  
C        C      0.170900000000     0.655400000000     0.128000000000     0.0336587  
C        C      0.301500000000     0.668700000000     0.298200000000     0.0336587  
C        C      0.720700000000     0.422600000000     0.212400000000     0.0336587  
C        C      0.733400000000     0.288400000000     0.214000000000     0.0336587  
C        C      0.744400000000     0.234700000000     0.299200000000     0.0336587  
C        C      0.738200000000     0.218500000000     0.131700000000     0.0336587  
C        C      0.757600000000     0.901500000000     0.221800000000     0.0336587  
C        C      0.754900000000     0.038800000000     0.218000000000     0.0336587  
C        C      0.747900000000     0.093700000000     0.133300000000     0.0336587  
C        C      0.755100000000     0.108800000000     0.302100000000     0.0336587  
C        C      0.972100000000     0.671700000000     0.212800000000     0.0336587  
C        C      0.110500000000     0.666900000000     0.212800000000     0.0336587  
C        C      0.175700000000     0.673200000000     0.298700000000     0.0336587  
C        C      0.839300000000     0.674100000000     0.511800000000     0.0336587  
C        C      0.843100000000     0.675400000000     0.609800000000     0.0336587  
C        C      0.736600000000     0.662800000000     0.661200000000     0.0336587  
C        C      0.629700000000     0.648800000000     0.609400000000     0.0336587  
C        C      0.632900000000     0.650700000000     0.511000000000     0.0336587  
C        C      0.737100000000     0.662400000000     0.765600000000     0.0336587  
C        C      0.847700000000     0.670200000000     0.818800000000     0.0336587  
C        C      0.626000000000     0.653100000000     0.817500000000     0.0336587  
C        C      0.842600000000     0.669500000000     0.916100000000     0.0336587  
C        C      0.630100000000     0.653400000000     0.915200000000     0.0336587  
N        N      0.263800000000     0.335300000000     0.537000000000    -0.163362   
N        N      0.265100000000     0.340200000000     0.034800000000    -0.163362   
N        N      0.736200000000     0.664700000000     0.463000000000    -0.163362   
N        N      0.734900000000     0.659800000000     0.965200000000    -0.163362   
O        O      0.449700000000     0.357200000000     0.866900000000    -0.294264   
O        O      0.446800000000     0.345000000000     0.707900000000    -0.294264   
O        O      0.283900000000     0.531700000000     0.867700000000    -0.294264   
O        O      0.285800000000     0.521100000000     0.710600000000    -0.294264   
O        O      0.243900000000     0.157200000000     0.857700000000    -0.294264   
O        O      0.239600000000     0.145000000000     0.698800000000    -0.294264   
O        O      0.080500000000     0.331200000000     0.865900000000    -0.294264   
O        O      0.078700000000     0.323800000000     0.707400000000    -0.294264   
O        O      0.550300000000     0.642800000000     0.133100000000    -0.294264   
O        O      0.553200000000     0.655000000000     0.292100000000    -0.294264   
O        O      0.716100000000     0.468300000000     0.132300000000    -0.294264   
O        O      0.714200000000     0.478900000000     0.289400000000    -0.294264   
O        O      0.756100000000     0.842800000000     0.142300000000    -0.294264   
O        O      0.760400000000     0.855000000000     0.301200000000    -0.294264   
O        O      0.919500000000     0.668800000000     0.134100000000    -0.294264   
O        O      0.921300000000     0.676200000000     0.292600000000    -0.294264   


