data_JASNEX_original

_audit_creation_method RASPA-1.0
_audit_creation_date 2022-1-29
_audit_author_name 'Felipe Lopes de Oliveira <felipe.lopes.oliveira@ibm.com>'

_cell_length_a    7.753
_cell_length_b    10.458
_cell_length_c    11.2386
_cell_angle_alpha 62.2723
_cell_angle_beta  85.3336
_cell_angle_gamma 79.9299
_cell_volume      794.17

_symmetry_cell_setting          triclinic
_symmetry_space_group_name_Hall 'P 1'
_symmetry_space_group_name_H-M  'P 1'
_symmetry_Int_Tables_number     1

_symmetry_equiv_pos_as_xyz 'x,y,z'

loop_
_atom_site_label
_atom_site_type_symbol
_atom_site_fract_x
_atom_site_fract_y
_atom_site_fract_z
_atom_site_charge
Zn       Zn     0.112400000000     0.600110000000     0.000000000000     0.464357   
Zn       Zn     0.887600000000     0.399890000000     0.000000000000     0.464357   
H        H      0.771600000000     0.572700000000     0.573200000000     0.0573996  
H        H      0.899700000000     0.592200000000     0.379600000000     0.0573996  
H        H      0.493400000000     0.469300000000     0.277800000000     0.0573996  
H        H      0.228400000000     0.854100000000     0.573200000000     0.0573996  
H        H      0.100300000000     0.028200000000     0.379600000000     0.0573996  
H        H      0.506600000000     0.252900000000     0.277800000000     0.0573996  
H        H      0.228400000000     0.427300000000     0.426800000000     0.0573996  
H        H      0.100300000000     0.407800000000     0.620400000000     0.0573996  
H        H      0.506600000000     0.530700000000     0.722200000000     0.0573996  
H        H      0.771600000000     0.145900000000     0.426800000000     0.0573996  
H        H      0.899700000000     0.971800000000     0.620400000000     0.0573996  
H        H      0.493400000000     0.747100000000     0.722200000000     0.0573996  
H        H      0.036100000000     0.903200000000     0.000000000000     0.0573996  
H        H      0.197300000000     0.071500000000     0.000000000000     0.0573996  
H        H      0.646200000000     0.809600000000     0.000000000000     0.0573996  
H        H      0.485100000000     0.641300000000     0.000000000000     0.0573996  
H        H      0.963900000000     0.096800000000     0.000000000000     0.0573996  
H        H      0.802700000000     0.928500000000     0.000000000000     0.0573996  
H        H      0.353800000000     0.190400000000     0.000000000000     0.0573996  
H        H      0.514900000000     0.358700000000     0.000000000000     0.0573996  
C        C      0.539300000000     0.516000000000     0.547000000000     0.0169973  
C        C      0.712400000000     0.553700000000     0.514800000000     0.0169973  
C        C      0.789200000000     0.561600000000     0.401000000000     0.0169973  
C        C      0.547600000000     0.490100000000     0.337200000000     0.0169973  
C        C      0.715000000000     0.527000000000     0.310600000000     0.0169973  
C        C      0.807000000000     0.524600000000     0.190800000000     0.0169973  
C        C      0.460700000000     0.937000000000     0.547000000000     0.0169973  
C        C      0.287600000000     0.931500000000     0.514800000000     0.0169973  
C        C      0.210800000000     0.037400000000     0.401000000000     0.0169973  
C        C      0.452400000000     0.172700000000     0.337200000000     0.0169973  
C        C      0.285000000000     0.162400000000     0.310600000000     0.0169973  
C        C      0.193000000000     0.284600000000     0.190800000000     0.0169973  
C        C      0.460700000000     0.484000000000     0.453000000000     0.0169973  
C        C      0.287600000000     0.446300000000     0.485200000000     0.0169973  
C        C      0.210800000000     0.438400000000     0.599000000000     0.0169973  
C        C      0.452400000000     0.509900000000     0.662800000000     0.0169973  
C        C      0.285000000000     0.473000000000     0.689400000000     0.0169973  
C        C      0.193000000000     0.475400000000     0.809200000000     0.0169973  
C        C      0.539300000000     0.063000000000     0.453000000000     0.0169973  
C        C      0.712400000000     0.068500000000     0.485200000000     0.0169973  
C        C      0.789200000000     0.962600000000     0.599000000000     0.0169973  
C        C      0.547600000000     0.827300000000     0.662800000000     0.0169973  
C        C      0.715000000000     0.837600000000     0.689400000000     0.0169973  
C        C      0.807000000000     0.715400000000     0.809200000000     0.0169973  
C        C      0.159200000000     0.884300000000     0.000000000000     0.0169973  
C        C      0.255300000000     0.984800000000     0.000000000000     0.0169973  
C        C      0.437300000000     0.956800000000     0.000000000000     0.0169973  
C        C      0.523100000000     0.828500000000     0.000000000000     0.0169973  
C        C      0.427000000000     0.728100000000     0.000000000000     0.0169973  
C        C      0.840800000000     0.115700000000     0.000000000000     0.0169973  
C        C      0.744700000000     0.015200000000     0.000000000000     0.0169973  
C        C      0.562700000000     0.043200000000     0.000000000000     0.0169973  
C        C      0.476900000000     0.171500000000     0.000000000000     0.0169973  
C        C      0.573000000000     0.271900000000     0.000000000000     0.0169973  
N        N      0.245000000000     0.756000000000     0.000000000000    -0.146655   
N        N      0.755000000000     0.244000000000     0.000000000000    -0.146655   
O        O      0.932900000000     0.595200000000     0.146200000000    -0.295163   
O        O      0.760800000000     0.451000000000     0.140600000000    -0.295163   
O        O      0.067100000000     0.258600000000     0.146200000000    -0.295163   
O        O      0.239200000000     0.408400000000     0.140600000000    -0.295163   
O        O      0.067100000000     0.404800000000     0.853800000000    -0.295163   
O        O      0.239200000000     0.549000000000     0.859400000000    -0.295163   
O        O      0.932900000000     0.741400000000     0.853800000000    -0.295163   
O        O      0.760800000000     0.591600000000     0.859400000000    -0.295163   


