data_JITPOS_original

_audit_creation_method RASPA-1.0
_audit_creation_date 2022-1-31
_audit_author_name 'Felipe Lopes de Oliveira <felipe.lopes.oliveira@ibm.com>'

_cell_length_a    10.5482
_cell_length_b    23.1451
_cell_length_c    27.3976
_cell_angle_alpha 90
_cell_angle_beta  90
_cell_angle_gamma 90
_cell_volume      6688.83

_symmetry_cell_setting          triclinic
_symmetry_space_group_name_Hall 'P 1'
_symmetry_space_group_name_H-M  'P 1'
_symmetry_Int_Tables_number     1

_symmetry_equiv_pos_as_xyz 'x,y,z'

loop_
_atom_site_label
_atom_site_type_symbol
_atom_site_fract_x
_atom_site_fract_y
_atom_site_fract_z
_atom_site_charge
Zn       Zn     0.413210000000     0.195720000000     0.958550000000     0.439655   
Zn       Zn     0.562420000000     0.269380000000     0.041520000000     0.439655   
Zn       Zn     0.242910000000     0.229130000000     0.044110000000     0.439655   
Zn       Zn     0.913210000000     0.304280000000     0.041450000000     0.439655   
Zn       Zn     0.062420000000     0.230620000000     0.958480000000     0.439655   
Zn       Zn     0.742910000000     0.270870000000     0.955890000000     0.439655   
Zn       Zn     0.586790000000     0.804280000000     0.458550000000     0.439655   
Zn       Zn     0.437580000000     0.730620000000     0.541520000000     0.439655   
Zn       Zn     0.757090000000     0.770870000000     0.544110000000     0.439655   
Zn       Zn     0.086790000000     0.695720000000     0.541450000000     0.439655   
Zn       Zn     0.937580000000     0.769380000000     0.458480000000     0.439655   
Zn       Zn     0.257090000000     0.729130000000     0.455890000000     0.439655   
Zn       Zn     0.586790000000     0.804280000000     0.041450000000     0.439655   
Zn       Zn     0.437580000000     0.730620000000     0.958480000000     0.439655   
Zn       Zn     0.757090000000     0.770870000000     0.955890000000     0.439655   
Zn       Zn     0.086790000000     0.695720000000     0.958550000000     0.439655   
Zn       Zn     0.937580000000     0.769380000000     0.041520000000     0.439655   
Zn       Zn     0.257090000000     0.729130000000     0.044110000000     0.439655   
Zn       Zn     0.413210000000     0.195720000000     0.541450000000     0.439655   
Zn       Zn     0.562420000000     0.269380000000     0.458480000000     0.439655   
Zn       Zn     0.242910000000     0.229130000000     0.455890000000     0.439655   
Zn       Zn     0.913210000000     0.304280000000     0.458550000000     0.439655   
Zn       Zn     0.062420000000     0.230620000000     0.541520000000     0.439655   
Zn       Zn     0.742910000000     0.270870000000     0.544110000000     0.439655   
H        H      0.505000000000     0.296000000000     0.951000000000     0.0607631  
H        H      0.049300000000     0.956200000000     0.083100000000     0.0607631  
H        H      0.279300000000     0.018000000000     0.949000000000     0.0607631  
H        H      0.560800000000     0.187600000000     0.129900000000     0.0607631  
H        H      0.208300000000     0.152900000000     0.129000000000     0.0607631  
H        H      0.099500000000     0.052700000000     0.074300000000     0.0607631  
H        H      0.415800000000     0.108700000000     0.872100000000     0.0607631  
H        H      0.588000000000     0.355400000000     0.127800000000     0.0607631  
H        H      0.591800000000     0.358700000000     0.212200000000     0.0607631  
H        H      0.394400000000     0.279200000000     0.787300000000     0.0607631  
H        H      0.557500000000     0.186000000000     0.213300000000     0.0607631  
H        H      0.254100000000     0.319700000000     0.129000000000     0.0607631  
H        H      0.420900000000     0.105100000000     0.788500000000     0.0607631  
H        H      0.392900000000     0.277200000000     0.870400000000     0.0607631  
H        H      0.200200000000     0.151300000000     0.212300000000     0.0607631  
H        H      0.252700000000     0.322100000000     0.212600000000     0.0607631  
H        H      0.005000000000     0.204000000000     0.049000000000     0.0607631  
H        H      0.549300000000     0.543800000000     0.916900000000     0.0607631  
H        H      0.779300000000     0.482000000000     0.051000000000     0.0607631  
H        H      0.060800000000     0.312400000000     0.870100000000     0.0607631  
H        H      0.708300000000     0.347100000000     0.871000000000     0.0607631  
H        H      0.599500000000     0.447300000000     0.925700000000     0.0607631  
H        H      0.915800000000     0.391300000000     0.127900000000     0.0607631  
H        H      0.088000000000     0.144600000000     0.872200000000     0.0607631  
H        H      0.091800000000     0.141300000000     0.787800000000     0.0607631  
H        H      0.894400000000     0.220800000000     0.212700000000     0.0607631  
H        H      0.057500000000     0.314000000000     0.786700000000     0.0607631  
H        H      0.754100000000     0.180300000000     0.871000000000     0.0607631  
H        H      0.920900000000     0.394900000000     0.211500000000     0.0607631  
H        H      0.892900000000     0.222800000000     0.129600000000     0.0607631  
H        H      0.700200000000     0.348700000000     0.787700000000     0.0607631  
H        H      0.752700000000     0.177900000000     0.787400000000     0.0607631  
H        H      0.495000000000     0.704000000000     0.451000000000     0.0607631  
H        H      0.950700000000     0.043800000000     0.583100000000     0.0607631  
H        H      0.720700000000     0.982000000000     0.449000000000     0.0607631  
H        H      0.439200000000     0.812400000000     0.629900000000     0.0607631  
H        H      0.791700000000     0.847100000000     0.629000000000     0.0607631  
H        H      0.900500000000     0.947300000000     0.574300000000     0.0607631  
H        H      0.584200000000     0.891300000000     0.372100000000     0.0607631  
H        H      0.412000000000     0.644600000000     0.627800000000     0.0607631  
H        H      0.408200000000     0.641300000000     0.712200000000     0.0607631  
H        H      0.605600000000     0.720800000000     0.287300000000     0.0607631  
H        H      0.442500000000     0.814000000000     0.713300000000     0.0607631  
H        H      0.745900000000     0.680300000000     0.629000000000     0.0607631  
H        H      0.579100000000     0.894900000000     0.288500000000     0.0607631  
H        H      0.607100000000     0.722800000000     0.370400000000     0.0607631  
H        H      0.799800000000     0.848700000000     0.712300000000     0.0607631  
H        H      0.747300000000     0.677900000000     0.712600000000     0.0607631  
H        H      0.995000000000     0.796000000000     0.549000000000     0.0607631  
H        H      0.450700000000     0.456200000000     0.416900000000     0.0607631  
H        H      0.220700000000     0.518000000000     0.551000000000     0.0607631  
H        H      0.939200000000     0.687600000000     0.370100000000     0.0607631  
H        H      0.291700000000     0.652900000000     0.371000000000     0.0607631  
H        H      0.400500000000     0.552700000000     0.425700000000     0.0607631  
H        H      0.084200000000     0.608700000000     0.627900000000     0.0607631  
H        H      0.912000000000     0.855400000000     0.372200000000     0.0607631  
H        H      0.908200000000     0.858700000000     0.287800000000     0.0607631  
H        H      0.105600000000     0.779200000000     0.712700000000     0.0607631  
H        H      0.942500000000     0.686000000000     0.286700000000     0.0607631  
H        H      0.245900000000     0.819700000000     0.371000000000     0.0607631  
H        H      0.079100000000     0.605100000000     0.711500000000     0.0607631  
H        H      0.107100000000     0.777200000000     0.629600000000     0.0607631  
H        H      0.299800000000     0.651300000000     0.287700000000     0.0607631  
H        H      0.247300000000     0.822100000000     0.287400000000     0.0607631  
H        H      0.495000000000     0.704000000000     0.049000000000     0.0607631  
H        H      0.950700000000     0.043800000000     0.916900000000     0.0607631  
H        H      0.720700000000     0.982000000000     0.051000000000     0.0607631  
H        H      0.439200000000     0.812400000000     0.870100000000     0.0607631  
H        H      0.791700000000     0.847100000000     0.871000000000     0.0607631  
H        H      0.900500000000     0.947300000000     0.925700000000     0.0607631  
H        H      0.584200000000     0.891300000000     0.127900000000     0.0607631  
H        H      0.412000000000     0.644600000000     0.872200000000     0.0607631  
H        H      0.408200000000     0.641300000000     0.787800000000     0.0607631  
H        H      0.605600000000     0.720800000000     0.212700000000     0.0607631  
H        H      0.442500000000     0.814000000000     0.786700000000     0.0607631  
H        H      0.745900000000     0.680300000000     0.871000000000     0.0607631  
H        H      0.579100000000     0.894900000000     0.211500000000     0.0607631  
H        H      0.607100000000     0.722800000000     0.129600000000     0.0607631  
H        H      0.799800000000     0.848700000000     0.787700000000     0.0607631  
H        H      0.747300000000     0.677900000000     0.787400000000     0.0607631  
H        H      0.995000000000     0.796000000000     0.951000000000     0.0607631  
H        H      0.450700000000     0.456200000000     0.083100000000     0.0607631  
H        H      0.220700000000     0.518000000000     0.949000000000     0.0607631  
H        H      0.939200000000     0.687600000000     0.129900000000     0.0607631  
H        H      0.291700000000     0.652900000000     0.129000000000     0.0607631  
H        H      0.400500000000     0.552700000000     0.074300000000     0.0607631  
H        H      0.084200000000     0.608700000000     0.872100000000     0.0607631  
H        H      0.912000000000     0.855400000000     0.127800000000     0.0607631  
H        H      0.908200000000     0.858700000000     0.212200000000     0.0607631  
H        H      0.105600000000     0.779200000000     0.787300000000     0.0607631  
H        H      0.942500000000     0.686000000000     0.213300000000     0.0607631  
H        H      0.245900000000     0.819700000000     0.129000000000     0.0607631  
H        H      0.079100000000     0.605100000000     0.788500000000     0.0607631  
H        H      0.107100000000     0.777200000000     0.870400000000     0.0607631  
H        H      0.299800000000     0.651300000000     0.212300000000     0.0607631  
H        H      0.247300000000     0.822100000000     0.212600000000     0.0607631  
H        H      0.505000000000     0.296000000000     0.549000000000     0.0607631  
H        H      0.049300000000     0.956200000000     0.416900000000     0.0607631  
H        H      0.279300000000     0.018000000000     0.551000000000     0.0607631  
H        H      0.560800000000     0.187600000000     0.370100000000     0.0607631  
H        H      0.208300000000     0.152900000000     0.371000000000     0.0607631  
H        H      0.099500000000     0.052700000000     0.425700000000     0.0607631  
H        H      0.415800000000     0.108700000000     0.627900000000     0.0607631  
H        H      0.588000000000     0.355400000000     0.372200000000     0.0607631  
H        H      0.591800000000     0.358700000000     0.287800000000     0.0607631  
H        H      0.394400000000     0.279200000000     0.712700000000     0.0607631  
H        H      0.557500000000     0.186000000000     0.286700000000     0.0607631  
H        H      0.254100000000     0.319700000000     0.371000000000     0.0607631  
H        H      0.420900000000     0.105100000000     0.711500000000     0.0607631  
H        H      0.392900000000     0.277200000000     0.629600000000     0.0607631  
H        H      0.200200000000     0.151300000000     0.287700000000     0.0607631  
H        H      0.252700000000     0.322100000000     0.287400000000     0.0607631  
H        H      0.005000000000     0.204000000000     0.451000000000     0.0607631  
H        H      0.549300000000     0.543800000000     0.583100000000     0.0607631  
H        H      0.779300000000     0.482000000000     0.449000000000     0.0607631  
H        H      0.060800000000     0.312400000000     0.629900000000     0.0607631  
H        H      0.708300000000     0.347100000000     0.629000000000     0.0607631  
H        H      0.599500000000     0.447300000000     0.574300000000     0.0607631  
H        H      0.915800000000     0.391300000000     0.372100000000     0.0607631  
H        H      0.088000000000     0.144600000000     0.627800000000     0.0607631  
H        H      0.091800000000     0.141300000000     0.712200000000     0.0607631  
H        H      0.894400000000     0.220800000000     0.287300000000     0.0607631  
H        H      0.057500000000     0.314000000000     0.713300000000     0.0607631  
H        H      0.754100000000     0.180300000000     0.629000000000     0.0607631  
H        H      0.920900000000     0.394900000000     0.288500000000     0.0607631  
H        H      0.892900000000     0.222800000000     0.370400000000     0.0607631  
H        H      0.700200000000     0.348700000000     0.712300000000     0.0607631  
H        H      0.752700000000     0.177900000000     0.712600000000     0.0607631  
C        C      0.111900000000     0.864700000000     0.033400000000     0.0160487  
C        C      0.199000000000     0.044600000000     0.011600000000     0.0160487  
C        C      0.203800000000     0.947100000000     0.980700000000     0.0160487  
C        C      0.408300000000     0.192100000000     0.776300000000     0.0160487  
C        C      0.139400000000     0.927300000000     0.022700000000     0.0160487  
C        C      0.229500000000     0.236600000000     0.223200000000     0.0160487  
C        C      0.575400000000     0.272700000000     0.223400000000     0.0160487  
C        C      0.241000000000     0.107300000000     0.007500000000     0.0160487  
C        C      0.098200000000     0.968100000000     0.056300000000     0.0160487  
C        C      0.234000000000     0.005200000000     0.976500000000     0.0160487  
C        C      0.565200000000     0.222900000000     0.146700000000     0.0160487  
C        C      0.218900000000     0.187800000000     0.146000000000     0.0160487  
C        C      0.127900000000     0.025900000000     0.051000000000     0.0160487  
C        C      0.412000000000     0.143600000000     0.854700000000     0.0160487  
C        C      0.581800000000     0.320500000000     0.145200000000     0.0160487  
C        C      0.584200000000     0.322900000000     0.196300000000     0.0160487  
C        C      0.399500000000     0.243500000000     0.803500000000     0.0160487  
C        C      0.564900000000     0.221500000000     0.196900000000     0.0160487  
C        C      0.246200000000     0.284700000000     0.146200000000     0.0160487  
C        C      0.414700000000     0.141100000000     0.804300000000     0.0160487  
C        C      0.398300000000     0.241900000000     0.853600000000     0.0160487  
C        C      0.214100000000     0.186500000000     0.196200000000     0.0160487  
C        C      0.244100000000     0.286500000000     0.196400000000     0.0160487  
C        C      0.611900000000     0.635300000000     0.966600000000     0.0160487  
C        C      0.699000000000     0.455400000000     0.988400000000     0.0160487  
C        C      0.703800000000     0.552900000000     0.019300000000     0.0160487  
C        C      0.908300000000     0.307900000000     0.223700000000     0.0160487  
C        C      0.639400000000     0.572700000000     0.977300000000     0.0160487  
C        C      0.729500000000     0.263400000000     0.776800000000     0.0160487  
C        C      0.075400000000     0.227300000000     0.776600000000     0.0160487  
C        C      0.741000000000     0.392700000000     0.992500000000     0.0160487  
C        C      0.598200000000     0.531900000000     0.943700000000     0.0160487  
C        C      0.734000000000     0.494800000000     0.023500000000     0.0160487  
C        C      0.065200000000     0.277100000000     0.853300000000     0.0160487  
C        C      0.718900000000     0.312200000000     0.854000000000     0.0160487  
C        C      0.627900000000     0.474100000000     0.949000000000     0.0160487  
C        C      0.912000000000     0.356400000000     0.145300000000     0.0160487  
C        C      0.081800000000     0.179500000000     0.854800000000     0.0160487  
C        C      0.084200000000     0.177100000000     0.803700000000     0.0160487  
C        C      0.899500000000     0.256500000000     0.196500000000     0.0160487  
C        C      0.064900000000     0.278500000000     0.803100000000     0.0160487  
C        C      0.746200000000     0.215300000000     0.853800000000     0.0160487  
C        C      0.914700000000     0.358900000000     0.195700000000     0.0160487  
C        C      0.898300000000     0.258100000000     0.146400000000     0.0160487  
C        C      0.714100000000     0.313500000000     0.803800000000     0.0160487  
C        C      0.744100000000     0.213500000000     0.803600000000     0.0160487  
C        C      0.888100000000     0.135300000000     0.533400000000     0.0160487  
C        C      0.801000000000     0.955400000000     0.511600000000     0.0160487  
C        C      0.796200000000     0.052900000000     0.480700000000     0.0160487  
C        C      0.591700000000     0.807900000000     0.276300000000     0.0160487  
C        C      0.860600000000     0.072700000000     0.522700000000     0.0160487  
C        C      0.770500000000     0.763400000000     0.723200000000     0.0160487  
C        C      0.424600000000     0.727300000000     0.723400000000     0.0160487  
C        C      0.759000000000     0.892700000000     0.507500000000     0.0160487  
C        C      0.901800000000     0.031900000000     0.556300000000     0.0160487  
C        C      0.766000000000     0.994800000000     0.476500000000     0.0160487  
C        C      0.434800000000     0.777100000000     0.646700000000     0.0160487  
C        C      0.781100000000     0.812200000000     0.646000000000     0.0160487  
C        C      0.872100000000     0.974100000000     0.551000000000     0.0160487  
C        C      0.588000000000     0.856400000000     0.354700000000     0.0160487  
C        C      0.418200000000     0.679500000000     0.645200000000     0.0160487  
C        C      0.415800000000     0.677100000000     0.696300000000     0.0160487  
C        C      0.600500000000     0.756500000000     0.303500000000     0.0160487  
C        C      0.435100000000     0.778500000000     0.696900000000     0.0160487  
C        C      0.753800000000     0.715300000000     0.646200000000     0.0160487  
C        C      0.585300000000     0.858900000000     0.304300000000     0.0160487  
C        C      0.601700000000     0.758100000000     0.353600000000     0.0160487  
C        C      0.785900000000     0.813500000000     0.696200000000     0.0160487  
C        C      0.755900000000     0.713500000000     0.696400000000     0.0160487  
C        C      0.388100000000     0.364700000000     0.466600000000     0.0160487  
C        C      0.301000000000     0.544600000000     0.488400000000     0.0160487  
C        C      0.296200000000     0.447100000000     0.519300000000     0.0160487  
C        C      0.091700000000     0.692100000000     0.723700000000     0.0160487  
C        C      0.360600000000     0.427300000000     0.477300000000     0.0160487  
C        C      0.270500000000     0.736600000000     0.276800000000     0.0160487  
C        C      0.924600000000     0.772700000000     0.276600000000     0.0160487  
C        C      0.259000000000     0.607300000000     0.492500000000     0.0160487  
C        C      0.401800000000     0.468100000000     0.443700000000     0.0160487  
C        C      0.266000000000     0.505200000000     0.523500000000     0.0160487  
C        C      0.934800000000     0.722900000000     0.353300000000     0.0160487  
C        C      0.281100000000     0.687800000000     0.354000000000     0.0160487  
C        C      0.372100000000     0.525900000000     0.449000000000     0.0160487  
C        C      0.088000000000     0.643600000000     0.645300000000     0.0160487  
C        C      0.918200000000     0.820500000000     0.354800000000     0.0160487  
C        C      0.915800000000     0.822900000000     0.303700000000     0.0160487  
C        C      0.100500000000     0.743500000000     0.696500000000     0.0160487  
C        C      0.935100000000     0.721500000000     0.303100000000     0.0160487  
C        C      0.253800000000     0.784700000000     0.353800000000     0.0160487  
C        C      0.085300000000     0.641100000000     0.695700000000     0.0160487  
C        C      0.101700000000     0.741900000000     0.646400000000     0.0160487  
C        C      0.285900000000     0.686500000000     0.303800000000     0.0160487  
C        C      0.255900000000     0.786500000000     0.303600000000     0.0160487  
C        C      0.888100000000     0.135300000000     0.966600000000     0.0160487  
C        C      0.801000000000     0.955400000000     0.988400000000     0.0160487  
C        C      0.796200000000     0.052900000000     0.019300000000     0.0160487  
C        C      0.591700000000     0.807900000000     0.223700000000     0.0160487  
C        C      0.860600000000     0.072700000000     0.977300000000     0.0160487  
C        C      0.770500000000     0.763400000000     0.776800000000     0.0160487  
C        C      0.424600000000     0.727300000000     0.776600000000     0.0160487  
C        C      0.759000000000     0.892700000000     0.992500000000     0.0160487  
C        C      0.901800000000     0.031900000000     0.943700000000     0.0160487  
C        C      0.766000000000     0.994800000000     0.023500000000     0.0160487  
C        C      0.434800000000     0.777100000000     0.853300000000     0.0160487  
C        C      0.781100000000     0.812200000000     0.854000000000     0.0160487  
C        C      0.872100000000     0.974100000000     0.949000000000     0.0160487  
C        C      0.588000000000     0.856400000000     0.145300000000     0.0160487  
C        C      0.418200000000     0.679500000000     0.854800000000     0.0160487  
C        C      0.415800000000     0.677100000000     0.803700000000     0.0160487  
C        C      0.600500000000     0.756500000000     0.196500000000     0.0160487  
C        C      0.435100000000     0.778500000000     0.803100000000     0.0160487  
C        C      0.753800000000     0.715300000000     0.853800000000     0.0160487  
C        C      0.585300000000     0.858900000000     0.195700000000     0.0160487  
C        C      0.601700000000     0.758100000000     0.146400000000     0.0160487  
C        C      0.785900000000     0.813500000000     0.803800000000     0.0160487  
C        C      0.755900000000     0.713500000000     0.803600000000     0.0160487  
C        C      0.388100000000     0.364700000000     0.033400000000     0.0160487  
C        C      0.301000000000     0.544600000000     0.011600000000     0.0160487  
C        C      0.296200000000     0.447100000000     0.980700000000     0.0160487  
C        C      0.091700000000     0.692100000000     0.776300000000     0.0160487  
C        C      0.360600000000     0.427300000000     0.022700000000     0.0160487  
C        C      0.270500000000     0.736600000000     0.223200000000     0.0160487  
C        C      0.924600000000     0.772700000000     0.223400000000     0.0160487  
C        C      0.259000000000     0.607300000000     0.007500000000     0.0160487  
C        C      0.401800000000     0.468100000000     0.056300000000     0.0160487  
C        C      0.266000000000     0.505200000000     0.976500000000     0.0160487  
C        C      0.934800000000     0.722900000000     0.146700000000     0.0160487  
C        C      0.281100000000     0.687800000000     0.146000000000     0.0160487  
C        C      0.372100000000     0.525900000000     0.051000000000     0.0160487  
C        C      0.088000000000     0.643600000000     0.854700000000     0.0160487  
C        C      0.918200000000     0.820500000000     0.145200000000     0.0160487  
C        C      0.915800000000     0.822900000000     0.196300000000     0.0160487  
C        C      0.100500000000     0.743500000000     0.803500000000     0.0160487  
C        C      0.935100000000     0.721500000000     0.196900000000     0.0160487  
C        C      0.253800000000     0.784700000000     0.146200000000     0.0160487  
C        C      0.085300000000     0.641100000000     0.804300000000     0.0160487  
C        C      0.101700000000     0.741900000000     0.853600000000     0.0160487  
C        C      0.285900000000     0.686500000000     0.196200000000     0.0160487  
C        C      0.255900000000     0.786500000000     0.196400000000     0.0160487  
C        C      0.111900000000     0.864700000000     0.466600000000     0.0160487  
C        C      0.199000000000     0.044600000000     0.488400000000     0.0160487  
C        C      0.203800000000     0.947100000000     0.519300000000     0.0160487  
C        C      0.408300000000     0.192100000000     0.723700000000     0.0160487  
C        C      0.139400000000     0.927300000000     0.477300000000     0.0160487  
C        C      0.229500000000     0.236600000000     0.276800000000     0.0160487  
C        C      0.575400000000     0.272700000000     0.276600000000     0.0160487  
C        C      0.241000000000     0.107300000000     0.492500000000     0.0160487  
C        C      0.098200000000     0.968100000000     0.443700000000     0.0160487  
C        C      0.234000000000     0.005200000000     0.523500000000     0.0160487  
C        C      0.565200000000     0.222900000000     0.353300000000     0.0160487  
C        C      0.218900000000     0.187800000000     0.354000000000     0.0160487  
C        C      0.127900000000     0.025900000000     0.449000000000     0.0160487  
C        C      0.412000000000     0.143600000000     0.645300000000     0.0160487  
C        C      0.581800000000     0.320500000000     0.354800000000     0.0160487  
C        C      0.584200000000     0.322900000000     0.303700000000     0.0160487  
C        C      0.399500000000     0.243500000000     0.696500000000     0.0160487  
C        C      0.564900000000     0.221500000000     0.303100000000     0.0160487  
C        C      0.246200000000     0.284700000000     0.353800000000     0.0160487  
C        C      0.414700000000     0.141100000000     0.695700000000     0.0160487  
C        C      0.398300000000     0.241900000000     0.646400000000     0.0160487  
C        C      0.214100000000     0.186500000000     0.303800000000     0.0160487  
C        C      0.244100000000     0.286500000000     0.303600000000     0.0160487  
C        C      0.611900000000     0.635300000000     0.533400000000     0.0160487  
C        C      0.699000000000     0.455400000000     0.511600000000     0.0160487  
C        C      0.703800000000     0.552900000000     0.480700000000     0.0160487  
C        C      0.908300000000     0.307900000000     0.276300000000     0.0160487  
C        C      0.639400000000     0.572700000000     0.522700000000     0.0160487  
C        C      0.729500000000     0.263400000000     0.723200000000     0.0160487  
C        C      0.075400000000     0.227300000000     0.723400000000     0.0160487  
C        C      0.741000000000     0.392700000000     0.507500000000     0.0160487  
C        C      0.598200000000     0.531900000000     0.556300000000     0.0160487  
C        C      0.734000000000     0.494800000000     0.476500000000     0.0160487  
C        C      0.065200000000     0.277100000000     0.646700000000     0.0160487  
C        C      0.718900000000     0.312200000000     0.646000000000     0.0160487  
C        C      0.627900000000     0.474100000000     0.551000000000     0.0160487  
C        C      0.912000000000     0.356400000000     0.354700000000     0.0160487  
C        C      0.081800000000     0.179500000000     0.645200000000     0.0160487  
C        C      0.084200000000     0.177100000000     0.696300000000     0.0160487  
C        C      0.899500000000     0.256500000000     0.303500000000     0.0160487  
C        C      0.064900000000     0.278500000000     0.696900000000     0.0160487  
C        C      0.746200000000     0.215300000000     0.646200000000     0.0160487  
C        C      0.914700000000     0.358900000000     0.304300000000     0.0160487  
C        C      0.898300000000     0.258100000000     0.353600000000     0.0160487  
C        C      0.714100000000     0.313500000000     0.696200000000     0.0160487  
C        C      0.744100000000     0.213500000000     0.696400000000     0.0160487  
S        S      0.247200000000     0.900100000000     0.932320000000     0.469432   
S        S      0.747200000000     0.599900000000     0.067680000000     0.469432   
S        S      0.752800000000     0.099900000000     0.432320000000     0.469432   
S        S      0.252800000000     0.400100000000     0.567680000000     0.469432   
S        S      0.752800000000     0.099900000000     0.067680000000     0.469432   
S        S      0.252800000000     0.400100000000     0.932320000000     0.469432   
S        S      0.247200000000     0.900100000000     0.567680000000     0.469432   
S        S      0.747200000000     0.599900000000     0.432320000000     0.469432   
N        N      0.237500000000     0.235400000000     0.120600000000    -0.15234    
N        N      0.404300000000     0.193200000000     0.880400000000    -0.15234    
N        N      0.571500000000     0.271900000000     0.120100000000    -0.15234    
N        N      0.737500000000     0.264600000000     0.879400000000    -0.15234    
N        N      0.904300000000     0.306800000000     0.119600000000    -0.15234    
N        N      0.071500000000     0.228100000000     0.879900000000    -0.15234    
N        N      0.762500000000     0.764600000000     0.620600000000    -0.15234    
N        N      0.595700000000     0.806800000000     0.380400000000    -0.15234    
N        N      0.428500000000     0.728100000000     0.620100000000    -0.15234    
N        N      0.262500000000     0.735400000000     0.379400000000    -0.15234    
N        N      0.095700000000     0.693200000000     0.619600000000    -0.15234    
N        N      0.928500000000     0.771900000000     0.379900000000    -0.15234    
N        N      0.762500000000     0.764600000000     0.879400000000    -0.15234    
N        N      0.595700000000     0.806800000000     0.119600000000    -0.15234    
N        N      0.428500000000     0.728100000000     0.879900000000    -0.15234    
N        N      0.262500000000     0.735400000000     0.120600000000    -0.15234    
N        N      0.095700000000     0.693200000000     0.880400000000    -0.15234    
N        N      0.928500000000     0.771900000000     0.120100000000    -0.15234    
N        N      0.237500000000     0.235400000000     0.379400000000    -0.15234    
N        N      0.404300000000     0.193200000000     0.619600000000    -0.15234    
N        N      0.571500000000     0.271900000000     0.379900000000    -0.15234    
N        N      0.737500000000     0.264600000000     0.620600000000    -0.15234    
N        N      0.904300000000     0.306800000000     0.380400000000    -0.15234    
N        N      0.071500000000     0.228100000000     0.620100000000    -0.15234    
O        O      0.432000000000     0.208200000000     0.037930000000    -0.267271   
O        O      0.246300000000     0.243300000000     0.969090000000    -0.267271   
O        O      0.209700000000     0.139800000000     0.042530000000    -0.267271   
O        O      0.996900000000     0.851400000000     0.037270000000    -0.267271   
O        O      0.202600000000     0.831200000000     0.040660000000    -0.267271   
O        O      0.303900000000     0.120900000000     0.970170000000    -0.267271   
O        O      0.547900000000     0.261200000000     0.961600000000    -0.267271   
O        O      0.245100000000     0.935600000000     0.888500000000    -0.267271   
O        O      0.374900000000     0.879500000000     0.942800000000    -0.267271   
O        O      0.154400000000     0.854300000000     0.931600000000    -0.267271   
O        O      0.932000000000     0.291800000000     0.962070000000    -0.267271   
O        O      0.746300000000     0.256700000000     0.030910000000    -0.267271   
O        O      0.709700000000     0.360200000000     0.957470000000    -0.267271   
O        O      0.496900000000     0.648600000000     0.962730000000    -0.267271   
O        O      0.702600000000     0.668800000000     0.959340000000    -0.267271   
O        O      0.803900000000     0.379100000000     0.029830000000    -0.267271   
O        O      0.047900000000     0.238800000000     0.038400000000    -0.267271   
O        O      0.745100000000     0.564400000000     0.111500000000    -0.267271   
O        O      0.874900000000     0.620500000000     0.057200000000    -0.267271   
O        O      0.654400000000     0.645700000000     0.068400000000    -0.267271   
O        O      0.568000000000     0.791800000000     0.537930000000    -0.267271   
O        O      0.753700000000     0.756700000000     0.469090000000    -0.267271   
O        O      0.790300000000     0.860200000000     0.542530000000    -0.267271   
O        O      0.003100000000     0.148600000000     0.537270000000    -0.267271   
O        O      0.797400000000     0.168800000000     0.540660000000    -0.267271   
O        O      0.696100000000     0.879100000000     0.470170000000    -0.267271   
O        O      0.452100000000     0.738800000000     0.461600000000    -0.267271   
O        O      0.754900000000     0.064400000000     0.388500000000    -0.267271   
O        O      0.625100000000     0.120500000000     0.442800000000    -0.267271   
O        O      0.845600000000     0.145700000000     0.431600000000    -0.267271   
O        O      0.068000000000     0.708200000000     0.462070000000    -0.267271   
O        O      0.253700000000     0.743300000000     0.530910000000    -0.267271   
O        O      0.290300000000     0.639800000000     0.457470000000    -0.267271   
O        O      0.503100000000     0.351400000000     0.462730000000    -0.267271   
O        O      0.297400000000     0.331200000000     0.459340000000    -0.267271   
O        O      0.196100000000     0.620900000000     0.529830000000    -0.267271   
O        O      0.952100000000     0.761200000000     0.538400000000    -0.267271   
O        O      0.254900000000     0.435600000000     0.611500000000    -0.267271   
O        O      0.125100000000     0.379500000000     0.557200000000    -0.267271   
O        O      0.345600000000     0.354300000000     0.568400000000    -0.267271   
O        O      0.568000000000     0.791800000000     0.962070000000    -0.267271   
O        O      0.753700000000     0.756700000000     0.030910000000    -0.267271   
O        O      0.790300000000     0.860200000000     0.957470000000    -0.267271   
O        O      0.003100000000     0.148600000000     0.962730000000    -0.267271   
O        O      0.797400000000     0.168800000000     0.959340000000    -0.267271   
O        O      0.696100000000     0.879100000000     0.029830000000    -0.267271   
O        O      0.452100000000     0.738800000000     0.038400000000    -0.267271   
O        O      0.754900000000     0.064400000000     0.111500000000    -0.267271   
O        O      0.625100000000     0.120500000000     0.057200000000    -0.267271   
O        O      0.845600000000     0.145700000000     0.068400000000    -0.267271   
O        O      0.068000000000     0.708200000000     0.037930000000    -0.267271   
O        O      0.253700000000     0.743300000000     0.969090000000    -0.267271   
O        O      0.290300000000     0.639800000000     0.042530000000    -0.267271   
O        O      0.503100000000     0.351400000000     0.037270000000    -0.267271   
O        O      0.297400000000     0.331200000000     0.040660000000    -0.267271   
O        O      0.196100000000     0.620900000000     0.970170000000    -0.267271   
O        O      0.952100000000     0.761200000000     0.961600000000    -0.267271   
O        O      0.254900000000     0.435600000000     0.888500000000    -0.267271   
O        O      0.125100000000     0.379500000000     0.942800000000    -0.267271   
O        O      0.345600000000     0.354300000000     0.931600000000    -0.267271   
O        O      0.432000000000     0.208200000000     0.462070000000    -0.267271   
O        O      0.246300000000     0.243300000000     0.530910000000    -0.267271   
O        O      0.209700000000     0.139800000000     0.457470000000    -0.267271   
O        O      0.996900000000     0.851400000000     0.462730000000    -0.267271   
O        O      0.202600000000     0.831200000000     0.459340000000    -0.267271   
O        O      0.303900000000     0.120900000000     0.529830000000    -0.267271   
O        O      0.547900000000     0.261200000000     0.538400000000    -0.267271   
O        O      0.245100000000     0.935600000000     0.611500000000    -0.267271   
O        O      0.374900000000     0.879500000000     0.557200000000    -0.267271   
O        O      0.154400000000     0.854300000000     0.568400000000    -0.267271   
O        O      0.932000000000     0.291800000000     0.537930000000    -0.267271   
O        O      0.746300000000     0.256700000000     0.469090000000    -0.267271   
O        O      0.709700000000     0.360200000000     0.542530000000    -0.267271   
O        O      0.496900000000     0.648600000000     0.537270000000    -0.267271   
O        O      0.702600000000     0.668800000000     0.540660000000    -0.267271   
O        O      0.803900000000     0.379100000000     0.470170000000    -0.267271   
O        O      0.047900000000     0.238800000000     0.461600000000    -0.267271   
O        O      0.745100000000     0.564400000000     0.388500000000    -0.267271   
O        O      0.874900000000     0.620500000000     0.442800000000    -0.267271   
O        O      0.654400000000     0.645700000000     0.431600000000    -0.267271   


