data_JIVFUQ_original

_audit_creation_method RASPA-1.0
_audit_creation_date 2022-1-28
_audit_author_name 'Felipe Lopes de Oliveira <felipe.lopes.oliveira@ibm.com>'

_cell_length_a    9.1571
_cell_length_b    10.4571
_cell_length_c    10.4571
_cell_angle_alpha 84.1007
_cell_angle_beta  79.6951
_cell_angle_gamma 79.695
_cell_volume      966.699

_symmetry_cell_setting          triclinic
_symmetry_space_group_name_Hall 'P 1'
_symmetry_space_group_name_H-M  'P 1'
_symmetry_Int_Tables_number     1

_symmetry_equiv_pos_as_xyz 'x,y,z'

loop_
_atom_site_label
_atom_site_type_symbol
_atom_site_fract_x
_atom_site_fract_y
_atom_site_fract_z
_atom_site_charge
Zn       Zn     0.750000000000     0.975570000000     0.024430000000     0.517339   
Zn       Zn     0.250000000000     0.024430000000     0.975570000000     0.517339   
P        P      0.991530000000     0.944740000000     0.206320000000     0.44933    
P        P      0.508470000000     0.793680000000     0.055260000000     0.44933    
P        P      0.008470000000     0.055260000000     0.793680000000     0.44933    
P        P      0.491530000000     0.206320000000     0.944740000000     0.44933    
H        H      0.013200000000     0.752500000000     0.234900000000     0.224835   
H        H      0.726400000000     0.037500000000     0.345900000000     0.224835   
H        H      0.214400000000     0.913700000000     0.363100000000     0.224835   
H        H      0.486800000000     0.765100000000     0.247500000000     0.224835   
H        H      0.773600000000     0.654100000000     0.962500000000     0.224835   
H        H      0.285600000000     0.636900000000     0.086300000000     0.224835   
H        H      0.986800000000     0.247500000000     0.765100000000     0.224835   
H        H      0.273600000000     0.962500000000     0.654100000000     0.224835   
H        H      0.785600000000     0.086300000000     0.636900000000     0.224835   
H        H      0.513200000000     0.234900000000     0.752500000000     0.224835   
H        H      0.226400000000     0.345900000000     0.037500000000     0.224835   
H        H      0.714400000000     0.363100000000     0.913700000000     0.224835   
C        C      0.861000000000     0.026680000000     0.456680000000     0.00599179 
C        C      0.990100000000     0.974250000000     0.373090000000     0.00599179 
C        C      0.128200000000     0.948400000000     0.418200000000     0.00599179 
C        C      0.639000000000     0.543320000000     0.973320000000     0.00599179 
C        C      0.509900000000     0.626910000000     0.025750000000     0.00599179 
C        C      0.371800000000     0.581800000000     0.051600000000     0.00599179 
C        C      0.139000000000     0.973320000000     0.543320000000     0.00599179 
C        C      0.009900000000     0.025750000000     0.626910000000     0.00599179 
C        C      0.871800000000     0.051600000000     0.581800000000     0.00599179 
C        C      0.361000000000     0.456680000000     0.026680000000     0.00599179 
C        C      0.490100000000     0.373090000000     0.974250000000     0.00599179 
C        C      0.628200000000     0.418200000000     0.948400000000     0.00599179 
O        O      0.062100000000     0.800690000000     0.184810000000    -0.35012    
O        O      0.827000000000     0.973020000000     0.187680000000    -0.35012    
O        O      0.089300000000     0.031080000000     0.120640000000    -0.35012    
O        O      0.721000000000     0.056620000000     0.420880000000    -0.35012    
O        O      0.437900000000     0.815190000000     0.199310000000    -0.35012    
O        O      0.673000000000     0.812320000000     0.026980000000    -0.35012    
O        O      0.410700000000     0.879360000000     0.968920000000    -0.35012    
O        O      0.779000000000     0.579120000000     0.943380000000    -0.35012    
O        O      0.937900000000     0.199310000000     0.815190000000    -0.35012    
O        O      0.173000000000     0.026980000000     0.812320000000    -0.35012    
O        O      0.910700000000     0.968920000000     0.879360000000    -0.35012    
O        O      0.279000000000     0.943380000000     0.579120000000    -0.35012    
O        O      0.562100000000     0.184810000000     0.800690000000    -0.35012    
O        O      0.327000000000     0.187680000000     0.973020000000    -0.35012    
O        O      0.589300000000     0.120640000000     0.031080000000    -0.35012    
O        O      0.221000000000     0.420880000000     0.056620000000    -0.35012    


