data_KAFTUI_original

_audit_creation_method RASPA-1.0
_audit_creation_date 2022-1-31
_audit_author_name 'Felipe Lopes de Oliveira <felipe.lopes.oliveira@ibm.com>'

_cell_length_a    7.5417
_cell_length_b    17.885
_cell_length_c    23.764
_cell_angle_alpha 92.498
_cell_angle_beta  90
_cell_angle_gamma 90
_cell_volume      3202.32

_symmetry_cell_setting          triclinic
_symmetry_space_group_name_Hall 'P 1'
_symmetry_space_group_name_H-M  'P 1'
_symmetry_Int_Tables_number     1

_symmetry_equiv_pos_as_xyz 'x,y,z'

loop_
_atom_site_label
_atom_site_type_symbol
_atom_site_fract_x
_atom_site_fract_y
_atom_site_fract_z
_atom_site_charge
Zn       Zn     0.973850000000     0.921560000000     0.968610000000     0.470488   
Zn       Zn     0.294440000000     0.990510000000     0.912670000000     0.470488   
Zn       Zn     0.973850000000     0.578440000000     0.531390000000     0.470488   
Zn       Zn     0.294440000000     0.509490000000     0.587330000000     0.470488   
Zn       Zn     0.026150000000     0.078440000000     0.031390000000     0.470488   
Zn       Zn     0.705560000000     0.009490000000     0.087330000000     0.470488   
Zn       Zn     0.026150000000     0.421560000000     0.468610000000     0.470488   
Zn       Zn     0.705560000000     0.490510000000     0.412670000000     0.470488   
H        H      0.495000000000     0.909900000000     0.731200000000     0.127233   
H        H      0.743000000000     0.176200000000     0.728800000000     0.127233   
H        H      0.739700000000     0.826100000000     0.640100000000     0.127233   
H        H      0.065400000000     0.004900000000     0.758500000000     0.127233   
H        H      0.933700000000     0.009300000000     0.670000000000     0.127233   
H        H      0.077000000000     0.212500000000     0.860500000000     0.127233   
H        H      0.163000000000     0.798300000000     0.571900000000     0.127233   
H        H      0.555100000000     0.108900000000     0.785600000000     0.127233   
H        H      0.887200000000     0.146700000000     0.917200000000     0.127233   
H        H      0.624200000000     0.909300000000     0.819900000000     0.127233   
H        H      0.629400000000     0.707200000000     0.617700000000     0.127233   
H        H      0.276200000000     0.917600000000     0.591800000000     0.127233   
H        H      0.495000000000     0.590100000000     0.768800000000     0.127233   
H        H      0.743000000000     0.323800000000     0.771200000000     0.127233   
H        H      0.739700000000     0.673900000000     0.859900000000     0.127233   
H        H      0.065400000000     0.495100000000     0.741500000000     0.127233   
H        H      0.933700000000     0.490700000000     0.830000000000     0.127233   
H        H      0.077000000000     0.287500000000     0.639500000000     0.127233   
H        H      0.163000000000     0.701700000000     0.928100000000     0.127233   
H        H      0.555100000000     0.391100000000     0.714400000000     0.127233   
H        H      0.887200000000     0.353300000000     0.582800000000     0.127233   
H        H      0.624200000000     0.590700000000     0.680100000000     0.127233   
H        H      0.629400000000     0.792800000000     0.882300000000     0.127233   
H        H      0.276200000000     0.582400000000     0.908200000000     0.127233   
H        H      0.505000000000     0.090100000000     0.268800000000     0.127233   
H        H      0.257000000000     0.823800000000     0.271200000000     0.127233   
H        H      0.260300000000     0.173900000000     0.359900000000     0.127233   
H        H      0.934600000000     0.995100000000     0.241500000000     0.127233   
H        H      0.066300000000     0.990700000000     0.330000000000     0.127233   
H        H      0.923000000000     0.787500000000     0.139500000000     0.127233   
H        H      0.837000000000     0.201700000000     0.428100000000     0.127233   
H        H      0.444900000000     0.891100000000     0.214400000000     0.127233   
H        H      0.112800000000     0.853300000000     0.082800000000     0.127233   
H        H      0.375800000000     0.090700000000     0.180100000000     0.127233   
H        H      0.370600000000     0.292800000000     0.382300000000     0.127233   
H        H      0.723800000000     0.082400000000     0.408200000000     0.127233   
H        H      0.505000000000     0.409900000000     0.231200000000     0.127233   
H        H      0.257000000000     0.676200000000     0.228800000000     0.127233   
H        H      0.260300000000     0.326100000000     0.140100000000     0.127233   
H        H      0.934600000000     0.504900000000     0.258500000000     0.127233   
H        H      0.066300000000     0.509300000000     0.170000000000     0.127233   
H        H      0.923000000000     0.712500000000     0.360500000000     0.127233   
H        H      0.837000000000     0.298300000000     0.071900000000     0.127233   
H        H      0.444900000000     0.608900000000     0.285600000000     0.127233   
H        H      0.112800000000     0.646700000000     0.417200000000     0.127233   
H        H      0.375800000000     0.409300000000     0.319900000000     0.127233   
H        H      0.370600000000     0.207200000000     0.117700000000     0.127233   
H        H      0.723800000000     0.417600000000     0.091800000000     0.127233   
C        C      0.308600000000     0.664090000000     0.580510000000     0.13031    
C        C      0.610800000000     0.929800000000     0.736730000000     0.13031    
C        C      0.925600000000     0.204150000000     0.789480000000     0.13031    
C        C      0.771500000000     0.171150000000     0.767400000000     0.13031    
C        C      0.699400000000     0.123280000000     0.857520000000     0.13031    
C        C      0.945100000000     0.957210000000     0.854240000000     0.13031    
C        C      0.603000000000     0.961040000000     0.634240000000     0.13031    
C        C      0.518700000000     0.883900000000     0.618990000000     0.13031    
C        C      0.701000000000     0.959600000000     0.691380000000     0.13031    
C        C      0.857900000000     0.957060000000     0.797510000000     0.13031    
C        C      0.622200000000     0.820570000000     0.626060000000     0.13031    
C        C      0.948600000000     0.986140000000     0.752910000000     0.13031    
C        C      0.462500000000     0.024660000000     0.640500000000     0.13031    
C        C      0.871000000000     0.988260000000     0.700200000000     0.13031    
C        C      0.969200000000     0.192900000000     0.845410000000     0.13031    
C        C      0.162500000000     0.306630000000     0.782680000000     0.13031    
C        C      0.280800000000     0.803960000000     0.585620000000     0.13031    
C        C      0.659700000000     0.131130000000     0.801190000000     0.13031    
C        C      0.727400000000     0.979440000000     0.584940000000     0.13031    
C        C      0.856800000000     0.153410000000     0.878950000000     0.13031    
C        C      0.574400000000     0.082640000000     0.894540000000     0.13031    
C        C      0.687500000000     0.928980000000     0.789350000000     0.13031    
C        C      0.556600000000     0.749860000000     0.613050000000     0.13031    
C        C      0.347400000000     0.874930000000     0.597840000000     0.13031    
C        C      0.384100000000     0.740800000000     0.593100000000     0.13031    
C        C      0.308600000000     0.835910000000     0.919490000000     0.13031    
C        C      0.610800000000     0.570200000000     0.763270000000     0.13031    
C        C      0.925600000000     0.295850000000     0.710520000000     0.13031    
C        C      0.771500000000     0.328850000000     0.732600000000     0.13031    
C        C      0.699400000000     0.376720000000     0.642480000000     0.13031    
C        C      0.945100000000     0.542790000000     0.645760000000     0.13031    
C        C      0.603000000000     0.538960000000     0.865760000000     0.13031    
C        C      0.518700000000     0.616100000000     0.881010000000     0.13031    
C        C      0.701000000000     0.540400000000     0.808620000000     0.13031    
C        C      0.857900000000     0.542940000000     0.702490000000     0.13031    
C        C      0.622200000000     0.679430000000     0.873940000000     0.13031    
C        C      0.948600000000     0.513860000000     0.747090000000     0.13031    
C        C      0.462500000000     0.475340000000     0.859500000000     0.13031    
C        C      0.871000000000     0.511740000000     0.799800000000     0.13031    
C        C      0.969200000000     0.307100000000     0.654590000000     0.13031    
C        C      0.162500000000     0.193370000000     0.717320000000     0.13031    
C        C      0.280800000000     0.696040000000     0.914380000000     0.13031    
C        C      0.659700000000     0.368870000000     0.698810000000     0.13031    
C        C      0.727400000000     0.520560000000     0.915060000000     0.13031    
C        C      0.856800000000     0.346590000000     0.621050000000     0.13031    
C        C      0.574400000000     0.417360000000     0.605460000000     0.13031    
C        C      0.687500000000     0.571020000000     0.710650000000     0.13031    
C        C      0.556600000000     0.750140000000     0.886950000000     0.13031    
C        C      0.347400000000     0.625070000000     0.902160000000     0.13031    
C        C      0.384100000000     0.759200000000     0.906900000000     0.13031    
C        C      0.691400000000     0.335910000000     0.419490000000     0.13031    
C        C      0.389200000000     0.070200000000     0.263270000000     0.13031    
C        C      0.074400000000     0.795850000000     0.210520000000     0.13031    
C        C      0.228500000000     0.828850000000     0.232600000000     0.13031    
C        C      0.300600000000     0.876720000000     0.142480000000     0.13031    
C        C      0.054900000000     0.042790000000     0.145760000000     0.13031    
C        C      0.397000000000     0.038960000000     0.365760000000     0.13031    
C        C      0.481300000000     0.116100000000     0.381010000000     0.13031    
C        C      0.299000000000     0.040400000000     0.308620000000     0.13031    
C        C      0.142100000000     0.042940000000     0.202490000000     0.13031    
C        C      0.377800000000     0.179430000000     0.373940000000     0.13031    
C        C      0.051400000000     0.013860000000     0.247090000000     0.13031    
C        C      0.537500000000     0.975340000000     0.359500000000     0.13031    
C        C      0.129000000000     0.011740000000     0.299800000000     0.13031    
C        C      0.030800000000     0.807100000000     0.154590000000     0.13031    
C        C      0.837500000000     0.693370000000     0.217320000000     0.13031    
C        C      0.719200000000     0.196040000000     0.414380000000     0.13031    
C        C      0.340300000000     0.868870000000     0.198810000000     0.13031    
C        C      0.272600000000     0.020560000000     0.415060000000     0.13031    
C        C      0.143200000000     0.846590000000     0.121050000000     0.13031    
C        C      0.425600000000     0.917360000000     0.105460000000     0.13031    
C        C      0.312500000000     0.071020000000     0.210650000000     0.13031    
C        C      0.443400000000     0.250140000000     0.386950000000     0.13031    
C        C      0.652600000000     0.125070000000     0.402160000000     0.13031    
C        C      0.615900000000     0.259200000000     0.406900000000     0.13031    
C        C      0.691400000000     0.164090000000     0.080510000000     0.13031    
C        C      0.389200000000     0.429800000000     0.236730000000     0.13031    
C        C      0.074400000000     0.704150000000     0.289480000000     0.13031    
C        C      0.228500000000     0.671150000000     0.267400000000     0.13031    
C        C      0.300600000000     0.623280000000     0.357520000000     0.13031    
C        C      0.054900000000     0.457210000000     0.354240000000     0.13031    
C        C      0.397000000000     0.461040000000     0.134240000000     0.13031    
C        C      0.481300000000     0.383900000000     0.118990000000     0.13031    
C        C      0.299000000000     0.459600000000     0.191380000000     0.13031    
C        C      0.142100000000     0.457060000000     0.297510000000     0.13031    
C        C      0.377800000000     0.320570000000     0.126060000000     0.13031    
C        C      0.051400000000     0.486140000000     0.252910000000     0.13031    
C        C      0.537500000000     0.524660000000     0.140500000000     0.13031    
C        C      0.129000000000     0.488260000000     0.200200000000     0.13031    
C        C      0.030800000000     0.692900000000     0.345410000000     0.13031    
C        C      0.837500000000     0.806630000000     0.282680000000     0.13031    
C        C      0.719200000000     0.303960000000     0.085620000000     0.13031    
C        C      0.340300000000     0.631130000000     0.301190000000     0.13031    
C        C      0.272600000000     0.479440000000     0.084940000000     0.13031    
C        C      0.143200000000     0.653410000000     0.378950000000     0.13031    
C        C      0.425600000000     0.582640000000     0.394540000000     0.13031    
C        C      0.312500000000     0.428980000000     0.289350000000     0.13031    
C        C      0.443400000000     0.249860000000     0.113050000000     0.13031    
C        C      0.652600000000     0.374930000000     0.097840000000     0.13031    
C        C      0.615900000000     0.240800000000     0.093100000000     0.13031    
C        C      0.041700000000     0.250000000000     0.750000000000     0.13031    
C        C      0.958300000000     0.750000000000     0.250000000000     0.13031    
O        O      0.430400000000     0.060460000000     0.871480000000    -0.271559   
O        O      0.154200000000     0.660490000000     0.561400000000    -0.271559   
O        O      0.859000000000     0.932120000000     0.894630000000    -0.271559   
O        O      0.610300000000     0.074380000000     0.944890000000    -0.271559   
O        O      0.099900000000     0.982460000000     0.857150000000    -0.271559   
O        O      0.406200000000     0.609040000000     0.590750000000    -0.271559   
O        O      0.174400000000     0.996900000000     0.986280000000    -0.271559   
O        O      0.430400000000     0.439540000000     0.628520000000    -0.271559   
O        O      0.154200000000     0.839510000000     0.938600000000    -0.271559   
O        O      0.859000000000     0.567880000000     0.605370000000    -0.271559   
O        O      0.610300000000     0.425620000000     0.555110000000    -0.271559   
O        O      0.099900000000     0.517540000000     0.642850000000    -0.271559   
O        O      0.406200000000     0.890960000000     0.909250000000    -0.271559   
O        O      0.174400000000     0.503100000000     0.513720000000    -0.271559   
O        O      0.569600000000     0.939540000000     0.128520000000    -0.271559   
O        O      0.845800000000     0.339510000000     0.438600000000    -0.271559   
O        O      0.141000000000     0.067880000000     0.105370000000    -0.271559   
O        O      0.389700000000     0.925620000000     0.055110000000    -0.271559   
O        O      0.900100000000     0.017540000000     0.142850000000    -0.271559   
O        O      0.593800000000     0.390960000000     0.409250000000    -0.271559   
O        O      0.825600000000     0.003100000000     0.013720000000    -0.271559   
O        O      0.569600000000     0.560460000000     0.371480000000    -0.271559   
O        O      0.845800000000     0.160490000000     0.061400000000    -0.271559   
O        O      0.141000000000     0.432120000000     0.394630000000    -0.271559   
O        O      0.389700000000     0.574380000000     0.444890000000    -0.271559   
O        O      0.900100000000     0.482460000000     0.357150000000    -0.271559   
O        O      0.593800000000     0.109040000000     0.090750000000    -0.271559   
O        O      0.825600000000     0.496900000000     0.486280000000    -0.271559   
F        F      0.237600000000     0.354880000000     0.748430000000    -0.432197   
F        F      0.295400000000     0.274800000000     0.810360000000    -0.432197   
F        F      0.869700000000     0.934950000000     0.582760000000    -0.432197   
F        F      0.787600000000     0.050190000000     0.587890000000    -0.432197   
F        F      0.069600000000     0.347660000000     0.820860000000    -0.432197   
F        F      0.534700000000     0.088190000000     0.661680000000    -0.432197   
F        F      0.330800000000     0.006900000000     0.674810000000    -0.432197   
F        F      0.645700000000     0.970150000000     0.535160000000    -0.432197   
F        F      0.388100000000     0.041210000000     0.591210000000    -0.432197   
F        F      0.237600000000     0.145120000000     0.751570000000    -0.432197   
F        F      0.295400000000     0.225200000000     0.689640000000    -0.432197   
F        F      0.869700000000     0.565050000000     0.917240000000    -0.432197   
F        F      0.787600000000     0.449810000000     0.912110000000    -0.432197   
F        F      0.069600000000     0.152340000000     0.679140000000    -0.432197   
F        F      0.534700000000     0.411810000000     0.838320000000    -0.432197   
F        F      0.330800000000     0.493100000000     0.825190000000    -0.432197   
F        F      0.645700000000     0.529850000000     0.964840000000    -0.432197   
F        F      0.388100000000     0.458790000000     0.908790000000    -0.432197   
F        F      0.762400000000     0.645120000000     0.251570000000    -0.432197   
F        F      0.704600000000     0.725200000000     0.189640000000    -0.432197   
F        F      0.130300000000     0.065050000000     0.417240000000    -0.432197   
F        F      0.212400000000     0.949810000000     0.412110000000    -0.432197   
F        F      0.930400000000     0.652340000000     0.179140000000    -0.432197   
F        F      0.465300000000     0.911810000000     0.338320000000    -0.432197   
F        F      0.669200000000     0.993100000000     0.325190000000    -0.432197   
F        F      0.354300000000     0.029850000000     0.464840000000    -0.432197   
F        F      0.611900000000     0.958790000000     0.408790000000    -0.432197   
F        F      0.762400000000     0.854880000000     0.248430000000    -0.432197   
F        F      0.704600000000     0.774800000000     0.310360000000    -0.432197   
F        F      0.130300000000     0.434950000000     0.082760000000    -0.432197   
F        F      0.212400000000     0.550190000000     0.087890000000    -0.432197   
F        F      0.930400000000     0.847660000000     0.320860000000    -0.432197   
F        F      0.465300000000     0.588190000000     0.161680000000    -0.432197   
F        F      0.669200000000     0.506900000000     0.174810000000    -0.432197   
F        F      0.354300000000     0.470150000000     0.035160000000    -0.432197   
F        F      0.611900000000     0.541210000000     0.091210000000    -0.432197   


