data_KAFYAT_original

_audit_creation_method RASPA-1.0
_audit_creation_date 2022-1-29
_audit_author_name 'Felipe Lopes de Oliveira <felipe.lopes.oliveira@ibm.com>'

_cell_length_a    8.629
_cell_length_b    9.8397
_cell_length_c    24.95
_cell_angle_alpha 90.512
_cell_angle_beta  90
_cell_angle_gamma 90
_cell_volume      2118.34

_symmetry_cell_setting          triclinic
_symmetry_space_group_name_Hall 'P 1'
_symmetry_space_group_name_H-M  'P 1'
_symmetry_Int_Tables_number     1

_symmetry_equiv_pos_as_xyz 'x,y,z'

loop_
_atom_site_label
_atom_site_type_symbol
_atom_site_fract_x
_atom_site_fract_y
_atom_site_fract_z
_atom_site_charge
Zn       Zn     0.200580000000     0.687310000000     0.398750000000     0.44126    
Zn       Zn     0.314870000000     0.767060000000     0.078620000000     0.44126    
Zn       Zn     0.700580000000     0.812690000000     0.101250000000     0.44126    
Zn       Zn     0.814870000000     0.732940000000     0.421380000000     0.44126    
Zn       Zn     0.799420000000     0.312690000000     0.601250000000     0.44126    
Zn       Zn     0.685130000000     0.232940000000     0.921380000000     0.44126    
Zn       Zn     0.299420000000     0.187310000000     0.898750000000     0.44126    
Zn       Zn     0.185130000000     0.267060000000     0.578620000000     0.44126    
Zn       Zn     0.500000000000     0.000000000000     0.000000000000     0.44126    
Zn       Zn     0.000000000000     0.500000000000     0.500000000000     0.44126    
H        H      0.265500000000     0.310400000000     0.070900000000     0.118727   
H        H      0.972400000000     0.458300000000     0.182300000000     0.118727   
H        H      0.021900000000     0.053400000000     0.164700000000     0.118727   
H        H      0.794500000000     0.145900000000     0.215100000000     0.118727   
H        H      0.788200000000     0.302700000000     0.227000000000     0.118727   
H        H      0.958000000000     0.396100000000     0.298900000000     0.118727   
H        H      0.142900000000     0.147000000000     0.406800000000     0.118727   
H        H      0.932200000000     0.996000000000     0.274100000000     0.118727   
H        H      0.530300000000     0.757800000000     0.019700000000     0.118727   
H        H      0.765500000000     0.189600000000     0.429100000000     0.118727   
H        H      0.472400000000     0.041700000000     0.317700000000     0.118727   
H        H      0.521900000000     0.446600000000     0.335300000000     0.118727   
H        H      0.294500000000     0.354100000000     0.284900000000     0.118727   
H        H      0.288200000000     0.197300000000     0.273000000000     0.118727   
H        H      0.458000000000     0.103900000000     0.201100000000     0.118727   
H        H      0.642900000000     0.353000000000     0.093200000000     0.118727   
H        H      0.432200000000     0.504000000000     0.225900000000     0.118727   
H        H      0.030300000000     0.742200000000     0.480300000000     0.118727   
H        H      0.734500000000     0.689600000000     0.929100000000     0.118727   
H        H      0.027600000000     0.541700000000     0.817700000000     0.118727   
H        H      0.978100000000     0.946600000000     0.835300000000     0.118727   
H        H      0.205500000000     0.854100000000     0.784900000000     0.118727   
H        H      0.211800000000     0.697300000000     0.773000000000     0.118727   
H        H      0.042000000000     0.603900000000     0.701100000000     0.118727   
H        H      0.857100000000     0.853000000000     0.593200000000     0.118727   
H        H      0.067800000000     0.004000000000     0.725900000000     0.118727   
H        H      0.469700000000     0.242200000000     0.980300000000     0.118727   
H        H      0.234500000000     0.810400000000     0.570900000000     0.118727   
H        H      0.527600000000     0.958300000000     0.682300000000     0.118727   
H        H      0.478100000000     0.553400000000     0.664700000000     0.118727   
H        H      0.705500000000     0.645900000000     0.715100000000     0.118727   
H        H      0.711800000000     0.802700000000     0.727000000000     0.118727   
H        H      0.542000000000     0.896100000000     0.798900000000     0.118727   
H        H      0.357100000000     0.647000000000     0.906800000000     0.118727   
H        H      0.567800000000     0.496000000000     0.774100000000     0.118727   
H        H      0.969700000000     0.257800000000     0.519700000000     0.118727   
C        C      0.155500000000     0.160400000000     0.114560000000     0.0266104  
C        C      0.196200000000     0.295600000000     0.098800000000     0.0266104  
C        C      0.128800000000     0.404400000000     0.126660000000     0.0266104  
C        C      0.018400000000     0.384000000000     0.165370000000     0.0266104  
C        C      0.973700000000     0.249200000000     0.179860000000     0.0266104  
C        C      0.046700000000     0.141500000000     0.154530000000     0.0266104  
C        C      0.856900000000     0.224900000000     0.224080000000     0.0266104  
C        C      0.937500000000     0.202300000000     0.277850000000     0.0266104  
C        C      0.980600000000     0.308300000000     0.309910000000     0.0266104  
C        C      0.056300000000     0.291100000000     0.358000000000     0.0266104  
C        C      0.090600000000     0.160500000000     0.374670000000     0.0266104  
C        C      0.046100000000     0.049200000000     0.343050000000     0.0266104  
C        C      0.965800000000     0.069700000000     0.294560000000     0.0266104  
C        C      0.237600000000     0.040700000000     0.089180000000     0.0266104  
C        C      0.175500000000     0.547000000000     0.112550000000     0.0266104  
C        C      0.105700000000     0.412200000000     0.391470000000     0.0266104  
C        C      0.083100000000     0.909200000000     0.361960000000     0.0266104  
C        C      0.655500000000     0.339600000000     0.385440000000     0.0266104  
C        C      0.696200000000     0.204400000000     0.401200000000     0.0266104  
C        C      0.628800000000     0.095600000000     0.373340000000     0.0266104  
C        C      0.518400000000     0.116000000000     0.334630000000     0.0266104  
C        C      0.473700000000     0.250800000000     0.320140000000     0.0266104  
C        C      0.546700000000     0.358500000000     0.345470000000     0.0266104  
C        C      0.356900000000     0.275100000000     0.275920000000     0.0266104  
C        C      0.437500000000     0.297700000000     0.222150000000     0.0266104  
C        C      0.480600000000     0.191700000000     0.190090000000     0.0266104  
C        C      0.556300000000     0.208900000000     0.142000000000     0.0266104  
C        C      0.590600000000     0.339500000000     0.125330000000     0.0266104  
C        C      0.546100000000     0.450800000000     0.156950000000     0.0266104  
C        C      0.465800000000     0.430300000000     0.205440000000     0.0266104  
C        C      0.737600000000     0.459300000000     0.410820000000     0.0266104  
C        C      0.675500000000     0.953000000000     0.387450000000     0.0266104  
C        C      0.605700000000     0.087800000000     0.108530000000     0.0266104  
C        C      0.583100000000     0.590800000000     0.138040000000     0.0266104  
C        C      0.844500000000     0.839600000000     0.885440000000     0.0266104  
C        C      0.803800000000     0.704400000000     0.901200000000     0.0266104  
C        C      0.871200000000     0.595600000000     0.873340000000     0.0266104  
C        C      0.981600000000     0.616000000000     0.834630000000     0.0266104  
C        C      0.026300000000     0.750800000000     0.820140000000     0.0266104  
C        C      0.953300000000     0.858500000000     0.845470000000     0.0266104  
C        C      0.143100000000     0.775100000000     0.775920000000     0.0266104  
C        C      0.062500000000     0.797700000000     0.722150000000     0.0266104  
C        C      0.019400000000     0.691700000000     0.690090000000     0.0266104  
C        C      0.943700000000     0.708900000000     0.642000000000     0.0266104  
C        C      0.909400000000     0.839500000000     0.625330000000     0.0266104  
C        C      0.953900000000     0.950800000000     0.656950000000     0.0266104  
C        C      0.034200000000     0.930300000000     0.705440000000     0.0266104  
C        C      0.762400000000     0.959300000000     0.910820000000     0.0266104  
C        C      0.824500000000     0.453000000000     0.887450000000     0.0266104  
C        C      0.894300000000     0.587800000000     0.608530000000     0.0266104  
C        C      0.916900000000     0.090800000000     0.638040000000     0.0266104  
C        C      0.344500000000     0.660400000000     0.614560000000     0.0266104  
C        C      0.303800000000     0.795600000000     0.598800000000     0.0266104  
C        C      0.371200000000     0.904400000000     0.626660000000     0.0266104  
C        C      0.481600000000     0.884000000000     0.665370000000     0.0266104  
C        C      0.526300000000     0.749200000000     0.679860000000     0.0266104  
C        C      0.453300000000     0.641500000000     0.654530000000     0.0266104  
C        C      0.643100000000     0.724900000000     0.724080000000     0.0266104  
C        C      0.562500000000     0.702300000000     0.777850000000     0.0266104  
C        C      0.519400000000     0.808300000000     0.809910000000     0.0266104  
C        C      0.443700000000     0.791100000000     0.858000000000     0.0266104  
C        C      0.409400000000     0.660500000000     0.874670000000     0.0266104  
C        C      0.453900000000     0.549200000000     0.843050000000     0.0266104  
C        C      0.534200000000     0.569700000000     0.794560000000     0.0266104  
C        C      0.262400000000     0.540700000000     0.589180000000     0.0266104  
C        C      0.324500000000     0.047000000000     0.612550000000     0.0266104  
C        C      0.394300000000     0.912200000000     0.891470000000     0.0266104  
C        C      0.416900000000     0.409200000000     0.861960000000     0.0266104  
O        O      0.237800000000     0.933300000000     0.113450000000    -0.291564   
O        O      0.292500000000     0.060400000000     0.041990000000    -0.291564   
O        O      0.290800000000     0.565500000000     0.080470000000    -0.291564   
O        O      0.116600000000     0.645100000000     0.134180000000    -0.291564   
O        O      0.123000000000     0.521600000000     0.365200000000    -0.291564   
O        O      0.131000000000     0.397800000000     0.439340000000    -0.291564   
O        O      0.185600000000     0.895700000000     0.398160000000    -0.291564   
O        O      0.011000000000     0.809800000000     0.344840000000    -0.291564   
O        O      0.511200000000     0.819800000000     0.042520000000    -0.291564   
O        O      0.737800000000     0.566700000000     0.386550000000    -0.291564   
O        O      0.792500000000     0.439600000000     0.458010000000    -0.291564   
O        O      0.790800000000     0.934500000000     0.419530000000    -0.291564   
O        O      0.616600000000     0.854900000000     0.365820000000    -0.291564   
O        O      0.623000000000     0.978400000000     0.134800000000    -0.291564   
O        O      0.631000000000     0.102200000000     0.060660000000    -0.291564   
O        O      0.685600000000     0.604300000000     0.101840000000    -0.291564   
O        O      0.511000000000     0.690200000000     0.155160000000    -0.291564   
O        O      0.011200000000     0.680200000000     0.457480000000    -0.291564   
O        O      0.762200000000     0.066700000000     0.886550000000    -0.291564   
O        O      0.707500000000     0.939600000000     0.958010000000    -0.291564   
O        O      0.709200000000     0.434500000000     0.919530000000    -0.291564   
O        O      0.883400000000     0.354900000000     0.865820000000    -0.291564   
O        O      0.877000000000     0.478400000000     0.634800000000    -0.291564   
O        O      0.869000000000     0.602200000000     0.560660000000    -0.291564   
O        O      0.814400000000     0.104300000000     0.601840000000    -0.291564   
O        O      0.989000000000     0.190200000000     0.655160000000    -0.291564   
O        O      0.488800000000     0.180200000000     0.957480000000    -0.291564   
O        O      0.262200000000     0.433300000000     0.613450000000    -0.291564   
O        O      0.207500000000     0.560400000000     0.541990000000    -0.291564   
O        O      0.209200000000     0.065500000000     0.580470000000    -0.291564   
O        O      0.383400000000     0.145100000000     0.634180000000    -0.291564   
O        O      0.377000000000     0.021600000000     0.865200000000    -0.291564   
O        O      0.369000000000     0.897800000000     0.939340000000    -0.291564   
O        O      0.314400000000     0.395700000000     0.898160000000    -0.291564   
O        O      0.489000000000     0.309800000000     0.844840000000    -0.291564   
O        O      0.988800000000     0.319800000000     0.542520000000    -0.291564   


