data_KAVROQ_original

_audit_creation_method RASPA-1.0
_audit_creation_date 2022-1-31
_audit_author_name 'Felipe Lopes de Oliveira <felipe.lopes.oliveira@ibm.com>'

_cell_length_a    9.868
_cell_length_b    18.14
_cell_length_c    18.2476
_cell_angle_alpha 90
_cell_angle_beta  90
_cell_angle_gamma 90
_cell_volume      3266.42

_symmetry_cell_setting          triclinic
_symmetry_space_group_name_Hall 'P 1'
_symmetry_space_group_name_H-M  'P 1'
_symmetry_Int_Tables_number     1

_symmetry_equiv_pos_as_xyz 'x,y,z'

loop_
_atom_site_label
_atom_site_type_symbol
_atom_site_fract_x
_atom_site_fract_y
_atom_site_fract_z
_atom_site_charge
Zn       Zn     0.922530000000     0.937780000000     0.678700000000     0.530576   
Zn       Zn     0.109910000000     0.035850000000     0.784770000000     0.530576   
Zn       Zn     0.577470000000     0.437780000000     0.821290000000     0.530576   
Zn       Zn     0.390090000000     0.535850000000     0.715220000000     0.530576   
Zn       Zn     0.077470000000     0.562220000000     0.678700000000     0.530576   
Zn       Zn     0.890090000000     0.464150000000     0.784770000000     0.530576   
Zn       Zn     0.422530000000     0.062220000000     0.821290000000     0.530576   
Zn       Zn     0.609910000000     0.964150000000     0.715220000000     0.530576   
Zn       Zn     0.077470000000     0.062220000000     0.321290000000     0.530576   
Zn       Zn     0.890090000000     0.964150000000     0.215220000000     0.530576   
Zn       Zn     0.422530000000     0.562220000000     0.178700000000     0.530576   
Zn       Zn     0.609910000000     0.464150000000     0.284770000000     0.530576   
Zn       Zn     0.922530000000     0.437780000000     0.321290000000     0.530576   
Zn       Zn     0.109910000000     0.535850000000     0.215220000000     0.530576   
Zn       Zn     0.577470000000     0.937780000000     0.178700000000     0.530576   
Zn       Zn     0.390090000000     0.035850000000     0.284770000000     0.530576   
Zn       Zn     0.000000000000     0.750000000000     0.688820000000     0.530576   
Zn       Zn     0.500000000000     0.250000000000     0.811180000000     0.530576   
Zn       Zn     0.000000000000     0.250000000000     0.311180000000     0.530576   
Zn       Zn     0.500000000000     0.750000000000     0.188820000000     0.530576   
Zn       Zn     0.000000000000     0.000000000000     0.500000000000     0.530576   
Zn       Zn     0.500000000000     0.500000000000     0.000000000000     0.530576   
Zn       Zn     0.000000000000     0.500000000000     0.500000000000     0.530576   
Zn       Zn     0.500000000000     0.000000000000     0.000000000000     0.530576   
H        H      0.151000000000     0.866600000000     0.533800000000    -0.0657344  
H        H      0.200000000000     0.877600000000     0.820400000000    -0.0657344  
H        H      0.760000000000     0.006100000000     0.862900000000    -0.0657344  
H        H      0.038000000000     0.142400000000     0.656000000000    -0.0657344  
H        H      0.698000000000     0.760900000000     0.688300000000    -0.0657344  
H        H      0.619000000000     0.987200000000     0.551100000000    -0.0657344  
H        H      0.349000000000     0.366600000000     0.966200000000    -0.0657344  
H        H      0.300000000000     0.377600000000     0.679600000000    -0.0657344  
H        H      0.740000000000     0.506100000000     0.637100000000    -0.0657344  
H        H      0.462000000000     0.642400000000     0.844000000000    -0.0657344  
H        H      0.802000000000     0.260900000000     0.811700000000    -0.0657344  
H        H      0.881000000000     0.487200000000     0.948900000000    -0.0657344  
H        H      0.849000000000     0.633400000000     0.533800000000    -0.0657344  
H        H      0.800000000000     0.622400000000     0.820400000000    -0.0657344  
H        H      0.240000000000     0.493900000000     0.862900000000    -0.0657344  
H        H      0.962000000000     0.357600000000     0.656000000000    -0.0657344  
H        H      0.302000000000     0.739100000000     0.688300000000    -0.0657344  
H        H      0.381000000000     0.512800000000     0.551100000000    -0.0657344  
H        H      0.651000000000     0.133400000000     0.966200000000    -0.0657344  
H        H      0.700000000000     0.122400000000     0.679600000000    -0.0657344  
H        H      0.260000000000     0.993900000000     0.637100000000    -0.0657344  
H        H      0.538000000000     0.857600000000     0.844000000000    -0.0657344  
H        H      0.198000000000     0.239100000000     0.811700000000    -0.0657344  
H        H      0.119000000000     0.012800000000     0.948900000000    -0.0657344  
H        H      0.849000000000     0.133400000000     0.466200000000    -0.0657344  
H        H      0.800000000000     0.122400000000     0.179600000000    -0.0657344  
H        H      0.240000000000     0.993900000000     0.137100000000    -0.0657344  
H        H      0.962000000000     0.857600000000     0.344000000000    -0.0657344  
H        H      0.302000000000     0.239100000000     0.311700000000    -0.0657344  
H        H      0.381000000000     0.012800000000     0.448900000000    -0.0657344  
H        H      0.651000000000     0.633400000000     0.033800000000    -0.0657344  
H        H      0.700000000000     0.622400000000     0.320400000000    -0.0657344  
H        H      0.260000000000     0.493900000000     0.362900000000    -0.0657344  
H        H      0.538000000000     0.357600000000     0.156000000000    -0.0657344  
H        H      0.198000000000     0.739100000000     0.188300000000    -0.0657344  
H        H      0.119000000000     0.512800000000     0.051100000000    -0.0657344  
H        H      0.151000000000     0.366600000000     0.466200000000    -0.0657344  
H        H      0.200000000000     0.377600000000     0.179600000000    -0.0657344  
H        H      0.760000000000     0.506100000000     0.137100000000    -0.0657344  
H        H      0.038000000000     0.642400000000     0.344000000000    -0.0657344  
H        H      0.698000000000     0.260900000000     0.311700000000    -0.0657344  
H        H      0.619000000000     0.487200000000     0.448900000000    -0.0657344  
H        H      0.349000000000     0.866600000000     0.033800000000    -0.0657344  
H        H      0.300000000000     0.877600000000     0.320400000000    -0.0657344  
H        H      0.740000000000     0.006100000000     0.362900000000    -0.0657344  
H        H      0.462000000000     0.142400000000     0.156000000000    -0.0657344  
H        H      0.802000000000     0.760900000000     0.188300000000    -0.0657344  
H        H      0.881000000000     0.987200000000     0.051100000000    -0.0657344  
C        C      0.101100000000     0.862860000000     0.571910000000     0.416225   
C        C      0.136000000000     0.867140000000     0.783230000000     0.416225   
C        C      0.017200000000     0.096100000000     0.638520000000     0.416225   
C        C      0.829600000000     0.000470000000     0.829820000000     0.416225   
C        C      0.722200000000     0.811790000000     0.693820000000     0.416225   
C        C      0.712400000000     0.987340000000     0.560320000000     0.416225   
C        C      0.398900000000     0.362860000000     0.928090000000     0.416225   
C        C      0.364000000000     0.367140000000     0.716770000000     0.416225   
C        C      0.482800000000     0.596100000000     0.861480000000     0.416225   
C        C      0.670400000000     0.500470000000     0.670180000000     0.416225   
C        C      0.777800000000     0.311790000000     0.806180000000     0.416225   
C        C      0.787600000000     0.487340000000     0.939680000000     0.416225   
C        C      0.898900000000     0.637140000000     0.571910000000     0.416225   
C        C      0.864000000000     0.632860000000     0.783230000000     0.416225   
C        C      0.982800000000     0.403900000000     0.638520000000     0.416225   
C        C      0.170400000000     0.499530000000     0.829820000000     0.416225   
C        C      0.277800000000     0.688210000000     0.693820000000     0.416225   
C        C      0.287600000000     0.512660000000     0.560320000000     0.416225   
C        C      0.601100000000     0.137140000000     0.928090000000     0.416225   
C        C      0.636000000000     0.132860000000     0.716770000000     0.416225   
C        C      0.517200000000     0.903900000000     0.861480000000     0.416225   
C        C      0.329600000000     0.999530000000     0.670180000000     0.416225   
C        C      0.222200000000     0.188210000000     0.806180000000     0.416225   
C        C      0.212400000000     0.012660000000     0.939680000000     0.416225   
C        C      0.898900000000     0.137140000000     0.428090000000     0.416225   
C        C      0.864000000000     0.132860000000     0.216770000000     0.416225   
C        C      0.982800000000     0.903900000000     0.361480000000     0.416225   
C        C      0.170400000000     0.999530000000     0.170180000000     0.416225   
C        C      0.277800000000     0.188210000000     0.306180000000     0.416225   
C        C      0.287600000000     0.012660000000     0.439680000000     0.416225   
C        C      0.601100000000     0.637140000000     0.071910000000     0.416225   
C        C      0.636000000000     0.632860000000     0.283230000000     0.416225   
C        C      0.517200000000     0.403900000000     0.138520000000     0.416225   
C        C      0.329600000000     0.499530000000     0.329820000000     0.416225   
C        C      0.222200000000     0.688210000000     0.193820000000     0.416225   
C        C      0.212400000000     0.512660000000     0.060320000000     0.416225   
C        C      0.101100000000     0.362860000000     0.428090000000     0.416225   
C        C      0.136000000000     0.367140000000     0.216770000000     0.416225   
C        C      0.017200000000     0.596100000000     0.361480000000     0.416225   
C        C      0.829600000000     0.500470000000     0.170180000000     0.416225   
C        C      0.722200000000     0.311790000000     0.306180000000     0.416225   
C        C      0.712400000000     0.487340000000     0.439680000000     0.416225   
C        C      0.398900000000     0.862860000000     0.071910000000     0.416225   
C        C      0.364000000000     0.867140000000     0.283230000000     0.416225   
C        C      0.482800000000     0.096100000000     0.138520000000     0.416225   
C        C      0.670400000000     0.000470000000     0.329820000000     0.416225   
C        C      0.777800000000     0.811790000000     0.193820000000     0.416225   
C        C      0.787600000000     0.987340000000     0.060320000000     0.416225   
O        O      0.026490000000     0.919030000000     0.584130000000    -0.307889   
O        O      0.108190000000     0.806800000000     0.609080000000    -0.307889   
O        O      0.083870000000     0.922980000000     0.752360000000    -0.307889   
O        O      0.110200000000     0.802040000000     0.769830000000    -0.307889   
O        O      0.007410000000     0.044760000000     0.685320000000    -0.307889   
O        O      0.002200000000     0.089940000000     0.571630000000    -0.307889   
O        O      0.801720000000     0.968560000000     0.769750000000    -0.307889   
O        O      0.940810000000     0.026630000000     0.847780000000    -0.307889   
O        O      0.845430000000     0.831690000000     0.686840000000    -0.307889   
O        O      0.791190000000     0.991270000000     0.507630000000    -0.307889   
O        O      0.622980000000     0.852480000000     0.704080000000    -0.307889   
O        O      0.745130000000     0.978770000000     0.627320000000    -0.307889   
O        O      0.473510000000     0.419030000000     0.915870000000    -0.307889   
O        O      0.391810000000     0.306800000000     0.890920000000    -0.307889   
O        O      0.416130000000     0.422980000000     0.747640000000    -0.307889   
O        O      0.389800000000     0.302040000000     0.730170000000    -0.307889   
O        O      0.492590000000     0.544760000000     0.814680000000    -0.307889   
O        O      0.497800000000     0.589940000000     0.928370000000    -0.307889   
O        O      0.698280000000     0.468560000000     0.730250000000    -0.307889   
O        O      0.559190000000     0.526630000000     0.652220000000    -0.307889   
O        O      0.654570000000     0.331690000000     0.813160000000    -0.307889   
O        O      0.708810000000     0.491270000000     0.992370000000    -0.307889   
O        O      0.877020000000     0.352480000000     0.795920000000    -0.307889   
O        O      0.754870000000     0.478770000000     0.872680000000    -0.307889   
O        O      0.973510000000     0.580970000000     0.584130000000    -0.307889   
O        O      0.891810000000     0.693200000000     0.609080000000    -0.307889   
O        O      0.916130000000     0.577020000000     0.752360000000    -0.307889   
O        O      0.889800000000     0.697960000000     0.769830000000    -0.307889   
O        O      0.992590000000     0.455240000000     0.685320000000    -0.307889   
O        O      0.997800000000     0.410060000000     0.571630000000    -0.307889   
O        O      0.198280000000     0.531440000000     0.769750000000    -0.307889   
O        O      0.059190000000     0.473370000000     0.847780000000    -0.307889   
O        O      0.154570000000     0.668310000000     0.686840000000    -0.307889   
O        O      0.208810000000     0.508730000000     0.507630000000    -0.307889   
O        O      0.377020000000     0.647520000000     0.704080000000    -0.307889   
O        O      0.254870000000     0.521230000000     0.627320000000    -0.307889   
O        O      0.526490000000     0.080970000000     0.915870000000    -0.307889   
O        O      0.608190000000     0.193200000000     0.890920000000    -0.307889   
O        O      0.583870000000     0.077020000000     0.747640000000    -0.307889   
O        O      0.610200000000     0.197960000000     0.730170000000    -0.307889   
O        O      0.507410000000     0.955240000000     0.814680000000    -0.307889   
O        O      0.502200000000     0.910060000000     0.928370000000    -0.307889   
O        O      0.301720000000     0.031440000000     0.730250000000    -0.307889   
O        O      0.440810000000     0.973370000000     0.652220000000    -0.307889   
O        O      0.345430000000     0.168310000000     0.813160000000    -0.307889   
O        O      0.291190000000     0.008730000000     0.992370000000    -0.307889   
O        O      0.122980000000     0.147520000000     0.795920000000    -0.307889   
O        O      0.245130000000     0.021230000000     0.872680000000    -0.307889   
O        O      0.973510000000     0.080970000000     0.415870000000    -0.307889   
O        O      0.891810000000     0.193200000000     0.390920000000    -0.307889   
O        O      0.916130000000     0.077020000000     0.247640000000    -0.307889   
O        O      0.889800000000     0.197960000000     0.230170000000    -0.307889   
O        O      0.992590000000     0.955240000000     0.314680000000    -0.307889   
O        O      0.997800000000     0.910060000000     0.428370000000    -0.307889   
O        O      0.198280000000     0.031440000000     0.230250000000    -0.307889   
O        O      0.059190000000     0.973370000000     0.152220000000    -0.307889   
O        O      0.154570000000     0.168310000000     0.313160000000    -0.307889   
O        O      0.208810000000     0.008730000000     0.492370000000    -0.307889   
O        O      0.377020000000     0.147520000000     0.295920000000    -0.307889   
O        O      0.254870000000     0.021230000000     0.372680000000    -0.307889   
O        O      0.526490000000     0.580970000000     0.084130000000    -0.307889   
O        O      0.608190000000     0.693200000000     0.109080000000    -0.307889   
O        O      0.583870000000     0.577020000000     0.252360000000    -0.307889   
O        O      0.610200000000     0.697960000000     0.269830000000    -0.307889   
O        O      0.507410000000     0.455240000000     0.185320000000    -0.307889   
O        O      0.502200000000     0.410060000000     0.071630000000    -0.307889   
O        O      0.301720000000     0.531440000000     0.269750000000    -0.307889   
O        O      0.440810000000     0.473370000000     0.347780000000    -0.307889   
O        O      0.345430000000     0.668310000000     0.186840000000    -0.307889   
O        O      0.291190000000     0.508730000000     0.007630000000    -0.307889   
O        O      0.122980000000     0.647520000000     0.204080000000    -0.307889   
O        O      0.245130000000     0.521230000000     0.127320000000    -0.307889   
O        O      0.026490000000     0.419030000000     0.415870000000    -0.307889   
O        O      0.108190000000     0.306800000000     0.390920000000    -0.307889   
O        O      0.083870000000     0.422980000000     0.247640000000    -0.307889   
O        O      0.110200000000     0.302040000000     0.230170000000    -0.307889   
O        O      0.007410000000     0.544760000000     0.314680000000    -0.307889   
O        O      0.002200000000     0.589940000000     0.428370000000    -0.307889   
O        O      0.801720000000     0.468560000000     0.230250000000    -0.307889   
O        O      0.940810000000     0.526630000000     0.152220000000    -0.307889   
O        O      0.845430000000     0.331690000000     0.313160000000    -0.307889   
O        O      0.791190000000     0.491270000000     0.492370000000    -0.307889   
O        O      0.622980000000     0.352480000000     0.295920000000    -0.307889   
O        O      0.745130000000     0.478770000000     0.372680000000    -0.307889   
O        O      0.473510000000     0.919030000000     0.084130000000    -0.307889   
O        O      0.391810000000     0.806800000000     0.109080000000    -0.307889   
O        O      0.416130000000     0.922980000000     0.252360000000    -0.307889   
O        O      0.389800000000     0.802040000000     0.269830000000    -0.307889   
O        O      0.492590000000     0.044760000000     0.185320000000    -0.307889   
O        O      0.497800000000     0.089940000000     0.071630000000    -0.307889   
O        O      0.698280000000     0.968560000000     0.269750000000    -0.307889   
O        O      0.559190000000     0.026630000000     0.347780000000    -0.307889   
O        O      0.654570000000     0.831690000000     0.186840000000    -0.307889   
O        O      0.708810000000     0.991270000000     0.007630000000    -0.307889   
O        O      0.877020000000     0.852480000000     0.204080000000    -0.307889   
O        O      0.754870000000     0.978770000000     0.127320000000    -0.307889   


