data_KAXQOR_original

_audit_creation_method RASPA-1.0
_audit_creation_date 2022-1-30
_audit_author_name 'Felipe Lopes de Oliveira <felipe.lopes.oliveira@ibm.com>'

_cell_length_a    5.5485
_cell_length_b    11.8783
_cell_length_c    22.7982
_cell_angle_alpha 101.535
_cell_angle_beta  90
_cell_angle_gamma 90
_cell_volume      1472.21

_symmetry_cell_setting          triclinic
_symmetry_space_group_name_Hall 'P 1'
_symmetry_space_group_name_H-M  'P 1'
_symmetry_Int_Tables_number     1

_symmetry_equiv_pos_as_xyz 'x,y,z'

loop_
_atom_site_label
_atom_site_type_symbol
_atom_site_fract_x
_atom_site_fract_y
_atom_site_fract_z
_atom_site_charge
Ca       Ca     0.270840000000     0.896530000000     0.456830000000     1.57222    
Ca       Ca     0.770840000000     0.603470000000     0.043170000000     1.57222    
Ca       Ca     0.729160000000     0.103470000000     0.543170000000     1.57222    
Ca       Ca     0.229160000000     0.396530000000     0.956830000000     1.57222    
H        H      0.027300000000     0.655600000000     0.531800000000     0.04449    
H        H      0.381100000000     0.781400000000     0.589400000000     0.04449    
H        H      0.934400000000     0.483100000000     0.559100000000     0.04449    
H        H      0.291200000000     0.610900000000     0.619500000000     0.04449    
H        H      0.921100000000     0.325300000000     0.667700000000     0.04449    
H        H      0.286900000000     0.481300000000     0.714700000000     0.04449    
H        H      0.003200000000     0.328400000000     0.768000000000     0.04449    
H        H      0.366400000000     0.478200000000     0.814500000000     0.04449    
H        H      0.527300000000     0.844400000000     0.968200000000     0.04449    
H        H      0.881100000000     0.718600000000     0.910600000000     0.04449    
H        H      0.434400000000     0.016900000000     0.940900000000     0.04449    
H        H      0.791200000000     0.889100000000     0.880500000000     0.04449    
H        H      0.421100000000     0.174700000000     0.832300000000     0.04449    
H        H      0.786900000000     0.018700000000     0.785300000000     0.04449    
H        H      0.503200000000     0.171600000000     0.732000000000     0.04449    
H        H      0.866400000000     0.021800000000     0.685500000000     0.04449    
H        H      0.972700000000     0.344400000000     0.468200000000     0.04449    
H        H      0.618900000000     0.218600000000     0.410600000000     0.04449    
H        H      0.065600000000     0.516900000000     0.440900000000     0.04449    
H        H      0.708800000000     0.389100000000     0.380500000000     0.04449    
H        H      0.078900000000     0.674700000000     0.332300000000     0.04449    
H        H      0.713100000000     0.518700000000     0.285300000000     0.04449    
H        H      0.996800000000     0.671600000000     0.232000000000     0.04449    
H        H      0.633600000000     0.521800000000     0.185500000000     0.04449    
H        H      0.472700000000     0.155600000000     0.031800000000     0.04449    
H        H      0.118900000000     0.281400000000     0.089400000000     0.04449    
H        H      0.565600000000     0.983100000000     0.059100000000     0.04449    
H        H      0.208800000000     0.110900000000     0.119500000000     0.04449    
H        H      0.578900000000     0.825300000000     0.167700000000     0.04449    
H        H      0.213100000000     0.981300000000     0.214700000000     0.04449    
H        H      0.496800000000     0.828400000000     0.268000000000     0.04449    
H        H      0.133600000000     0.978200000000     0.314500000000     0.04449    
C        C      0.771500000000     0.842800000000     0.534510000000     0.0345149  
C        C      0.711500000000     0.734590000000     0.556170000000     0.0345149  
C        C      0.877400000000     0.645900000000     0.548350000000     0.0345149  
C        C      0.491900000000     0.721500000000     0.583120000000     0.0345149  
C        C      0.823100000000     0.542800000000     0.564890000000     0.0345149  
C        C      0.437000000000     0.619400000000     0.600710000000     0.0345149  
C        C      0.601500000000     0.530250000000     0.590060000000     0.0345149  
C        C      0.594900000000     0.401780000000     0.682300000000     0.0345149  
C        C      0.810400000000     0.356200000000     0.697150000000     0.0345149  
C        C      0.429000000000     0.449100000000     0.725430000000     0.0345149  
C        C      0.857900000000     0.357600000000     0.757150000000     0.0345149  
C        C      0.477800000000     0.447900000000     0.785100000000     0.0345149  
C        C      0.691300000000     0.401850000000     0.800960000000     0.0345149  
C        C      0.738400000000     0.394020000000     0.865600000000     0.0345149  
C        C      0.271500000000     0.657200000000     0.965490000000     0.0345149  
C        C      0.211500000000     0.765410000000     0.943830000000     0.0345149  
C        C      0.377400000000     0.854100000000     0.951650000000     0.0345149  
C        C      0.991900000000     0.778500000000     0.916880000000     0.0345149  
C        C      0.323100000000     0.957200000000     0.935110000000     0.0345149  
C        C      0.937000000000     0.880600000000     0.899290000000     0.0345149  
C        C      0.101500000000     0.969750000000     0.909940000000     0.0345149  
C        C      0.094900000000     0.098220000000     0.817700000000     0.0345149  
C        C      0.310400000000     0.143800000000     0.802850000000     0.0345149  
C        C      0.929000000000     0.050900000000     0.774570000000     0.0345149  
C        C      0.357900000000     0.142400000000     0.742850000000     0.0345149  
C        C      0.977800000000     0.052100000000     0.714900000000     0.0345149  
C        C      0.191300000000     0.098150000000     0.699040000000     0.0345149  
C        C      0.238400000000     0.105980000000     0.634400000000     0.0345149  
C        C      0.228500000000     0.157200000000     0.465490000000     0.0345149  
C        C      0.288500000000     0.265410000000     0.443830000000     0.0345149  
C        C      0.122600000000     0.354100000000     0.451650000000     0.0345149  
C        C      0.508100000000     0.278500000000     0.416880000000     0.0345149  
C        C      0.176900000000     0.457200000000     0.435110000000     0.0345149  
C        C      0.563000000000     0.380600000000     0.399290000000     0.0345149  
C        C      0.398500000000     0.469750000000     0.409940000000     0.0345149  
C        C      0.405100000000     0.598220000000     0.317700000000     0.0345149  
C        C      0.189600000000     0.643800000000     0.302850000000     0.0345149  
C        C      0.571000000000     0.550900000000     0.274570000000     0.0345149  
C        C      0.142100000000     0.642400000000     0.242850000000     0.0345149  
C        C      0.522200000000     0.552100000000     0.214900000000     0.0345149  
C        C      0.308700000000     0.598150000000     0.199040000000     0.0345149  
C        C      0.261600000000     0.605980000000     0.134400000000     0.0345149  
C        C      0.728500000000     0.342800000000     0.034510000000     0.0345149  
C        C      0.788500000000     0.234590000000     0.056170000000     0.0345149  
C        C      0.622600000000     0.145900000000     0.048350000000     0.0345149  
C        C      0.008100000000     0.221500000000     0.083120000000     0.0345149  
C        C      0.676900000000     0.042800000000     0.064890000000     0.0345149  
C        C      0.063000000000     0.119400000000     0.100710000000     0.0345149  
C        C      0.898500000000     0.030250000000     0.090060000000     0.0345149  
C        C      0.905100000000     0.901780000000     0.182300000000     0.0345149  
C        C      0.689600000000     0.856200000000     0.197150000000     0.0345149  
C        C      0.071000000000     0.949100000000     0.225430000000     0.0345149  
C        C      0.642100000000     0.857600000000     0.257150000000     0.0345149  
C        C      0.022200000000     0.947900000000     0.285100000000     0.0345149  
C        C      0.808700000000     0.901850000000     0.300960000000     0.0345149  
C        C      0.761600000000     0.894020000000     0.365600000000     0.0345149  
S        S      0.521620000000     0.395650000000     0.606400000000     0.312178   
S        S      0.021620000000     0.104350000000     0.893600000000     0.312178   
S        S      0.478380000000     0.604350000000     0.393600000000     0.312178   
S        S      0.978380000000     0.895650000000     0.106400000000     0.312178   
O        O      0.988400000000     0.864260000000     0.527380000000    -0.453921   
O        O      0.677500000000     0.311500000000     0.570060000000    -0.453921   
O        O      0.265300000000     0.383330000000     0.600160000000    -0.453921   
O        O      0.558400000000     0.395140000000     0.897890000000    -0.453921   
O        O      0.952300000000     0.384950000000     0.880500000000    -0.453921   
O        O      0.599000000000     0.906770000000     0.525790000000    -0.453921   
O        O      0.488400000000     0.635740000000     0.972620000000    -0.453921   
O        O      0.177500000000     0.188500000000     0.929940000000    -0.453921   
O        O      0.765300000000     0.116670000000     0.899840000000    -0.453921   
O        O      0.058400000000     0.104860000000     0.602110000000    -0.453921   
O        O      0.452300000000     0.115050000000     0.619500000000    -0.453921   
O        O      0.099000000000     0.593230000000     0.974210000000    -0.453921   
O        O      0.011600000000     0.135740000000     0.472620000000    -0.453921   
O        O      0.322500000000     0.688500000000     0.429940000000    -0.453921   
O        O      0.734700000000     0.616670000000     0.399840000000    -0.453921   
O        O      0.441600000000     0.604860000000     0.102110000000    -0.453921   
O        O      0.047700000000     0.615050000000     0.119500000000    -0.453921   
O        O      0.401000000000     0.093230000000     0.474210000000    -0.453921   
O        O      0.511600000000     0.364260000000     0.027380000000    -0.453921   
O        O      0.822500000000     0.811500000000     0.070060000000    -0.453921   
O        O      0.234700000000     0.883330000000     0.100160000000    -0.453921   
O        O      0.941600000000     0.895140000000     0.397890000000    -0.453921   
O        O      0.547700000000     0.884950000000     0.380500000000    -0.453921   
O        O      0.901000000000     0.406770000000     0.025790000000    -0.453921   


