data_KAXQOR01_original

_audit_creation_method RASPA-1.0
_audit_creation_date 2022-1-30
_audit_author_name 'Felipe Lopes de Oliveira <felipe.lopes.oliveira@ibm.com>'

_cell_length_a    5.5499
_cell_length_b    11.7361
_cell_length_c    22.819
_cell_angle_alpha 100.999
_cell_angle_beta  90
_cell_angle_gamma 90
_cell_volume      1458.99

_symmetry_cell_setting          triclinic
_symmetry_space_group_name_Hall 'P 1'
_symmetry_space_group_name_H-M  'P 1'
_symmetry_Int_Tables_number     1

_symmetry_equiv_pos_as_xyz 'x,y,z'

loop_
_atom_site_label
_atom_site_type_symbol
_atom_site_fract_x
_atom_site_fract_y
_atom_site_fract_z
_atom_site_charge
Ca       Ca     0.258920000000     0.864290000000     0.777760000000     1.57395    
Ca       Ca     0.758920000000     0.635710000000     0.722240000000     1.57395    
Ca       Ca     0.741080000000     0.135710000000     0.222240000000     1.57395    
Ca       Ca     0.241080000000     0.364290000000     0.277760000000     1.57395    
H        H      0.622300000000     0.269900000000     0.095600000000     0.0443224  
H        H      0.705900000000     0.229000000000     0.994100000000     0.0443224  
H        H      0.055200000000     0.081700000000     0.962800000000     0.0443224  
H        H      0.970800000000     0.126600000000     0.063800000000     0.0443224  
H        H      0.701100000000     0.311200000000     0.882500000000     0.0443224  
H        H      0.620600000000     0.459200000000     0.831300000000     0.0443224  
H        H      0.980600000000     0.315600000000     0.780900000000     0.0443224  
H        H      0.065400000000     0.162800000000     0.828800000000     0.0443224  
H        H      0.122300000000     0.230100000000     0.404400000000     0.0443224  
H        H      0.205900000000     0.271000000000     0.505900000000     0.0443224  
H        H      0.555200000000     0.418300000000     0.537200000000     0.0443224  
H        H      0.470800000000     0.373400000000     0.436200000000     0.0443224  
H        H      0.201100000000     0.188800000000     0.617500000000     0.0443224  
H        H      0.120600000000     0.040800000000     0.668700000000     0.0443224  
H        H      0.480600000000     0.184400000000     0.719100000000     0.0443224  
H        H      0.565400000000     0.337200000000     0.671200000000     0.0443224  
H        H      0.377700000000     0.730100000000     0.904400000000     0.0443224  
H        H      0.294100000000     0.771000000000     0.005900000000     0.0443224  
H        H      0.944800000000     0.918300000000     0.037200000000     0.0443224  
H        H      0.029200000000     0.873400000000     0.936200000000     0.0443224  
H        H      0.298900000000     0.688800000000     0.117500000000     0.0443224  
H        H      0.379400000000     0.540800000000     0.168700000000     0.0443224  
H        H      0.019400000000     0.684400000000     0.219100000000     0.0443224  
H        H      0.934600000000     0.837200000000     0.171200000000     0.0443224  
H        H      0.877700000000     0.769900000000     0.595600000000     0.0443224  
H        H      0.794100000000     0.729000000000     0.494100000000     0.0443224  
H        H      0.444800000000     0.581700000000     0.462800000000     0.0443224  
H        H      0.529200000000     0.626600000000     0.563800000000     0.0443224  
H        H      0.798900000000     0.811200000000     0.382500000000     0.0443224  
H        H      0.879400000000     0.959200000000     0.331300000000     0.0443224  
H        H      0.519400000000     0.815600000000     0.280900000000     0.0443224  
H        H      0.434600000000     0.662800000000     0.328800000000     0.0443224  
C        C      0.236100000000     0.222900000000     0.155140000000     0.0337396  
C        C      0.289700000000     0.199700000000     0.089680000000     0.0337396  
C        C      0.508900000000     0.231500000000     0.068870000000     0.0337396  
C        C      0.559900000000     0.206500000000     0.008390000000     0.0337396  
C        C      0.391700000000     0.147900000000     0.969590000000     0.0337396  
C        C      0.169700000000     0.118800000000     0.989550000000     0.0337396  
C        C      0.120300000000     0.145500000000     0.049910000000     0.0337396  
C        C      0.392300000000     0.222300000000     0.859090000000     0.0337396  
C        C      0.558400000000     0.311400000000     0.861130000000     0.0337396  
C        C      0.508900000000     0.400100000000     0.831100000000     0.0337396  
C        C      0.293700000000     0.401500000000     0.800580000000     0.0337396  
C        C      0.126900000000     0.313500000000     0.800520000000     0.0337396  
C        C      0.176000000000     0.222500000000     0.829390000000     0.0337396  
C        C      0.244500000000     0.495100000000     0.764890000000     0.0337396  
C        C      0.736100000000     0.277100000000     0.344860000000     0.0337396  
C        C      0.789700000000     0.300300000000     0.410320000000     0.0337396  
C        C      0.008900000000     0.268500000000     0.431130000000     0.0337396  
C        C      0.059900000000     0.293500000000     0.491610000000     0.0337396  
C        C      0.891700000000     0.352100000000     0.530410000000     0.0337396  
C        C      0.669700000000     0.381200000000     0.510450000000     0.0337396  
C        C      0.620300000000     0.354500000000     0.450090000000     0.0337396  
C        C      0.892300000000     0.277700000000     0.640910000000     0.0337396  
C        C      0.058400000000     0.188600000000     0.638870000000     0.0337396  
C        C      0.008900000000     0.099900000000     0.668900000000     0.0337396  
C        C      0.793700000000     0.098500000000     0.699420000000     0.0337396  
C        C      0.626900000000     0.186500000000     0.699480000000     0.0337396  
C        C      0.676000000000     0.277500000000     0.670610000000     0.0337396  
C        C      0.744500000000     0.004900000000     0.735110000000     0.0337396  
C        C      0.763900000000     0.777100000000     0.844860000000     0.0337396  
C        C      0.710300000000     0.800300000000     0.910320000000     0.0337396  
C        C      0.491100000000     0.768500000000     0.931130000000     0.0337396  
C        C      0.440100000000     0.793500000000     0.991610000000     0.0337396  
C        C      0.608300000000     0.852100000000     0.030410000000     0.0337396  
C        C      0.830300000000     0.881200000000     0.010450000000     0.0337396  
C        C      0.879700000000     0.854500000000     0.950090000000     0.0337396  
C        C      0.607700000000     0.777700000000     0.140910000000     0.0337396  
C        C      0.441600000000     0.688600000000     0.138870000000     0.0337396  
C        C      0.491100000000     0.599900000000     0.168900000000     0.0337396  
C        C      0.706300000000     0.598500000000     0.199420000000     0.0337396  
C        C      0.873100000000     0.686500000000     0.199480000000     0.0337396  
C        C      0.824000000000     0.777500000000     0.170610000000     0.0337396  
C        C      0.755500000000     0.504900000000     0.235110000000     0.0337396  
C        C      0.263900000000     0.722900000000     0.655140000000     0.0337396  
C        C      0.210300000000     0.699700000000     0.589680000000     0.0337396  
C        C      0.991100000000     0.731500000000     0.568870000000     0.0337396  
C        C      0.940100000000     0.706500000000     0.508390000000     0.0337396  
C        C      0.108300000000     0.647900000000     0.469590000000     0.0337396  
C        C      0.330300000000     0.618800000000     0.489550000000     0.0337396  
C        C      0.379700000000     0.645500000000     0.549910000000     0.0337396  
C        C      0.107700000000     0.722300000000     0.359090000000     0.0337396  
C        C      0.941600000000     0.811400000000     0.361130000000     0.0337396  
C        C      0.991100000000     0.900100000000     0.331100000000     0.0337396  
C        C      0.206300000000     0.901500000000     0.300580000000     0.0337396  
C        C      0.373100000000     0.813500000000     0.300520000000     0.0337396  
C        C      0.324000000000     0.722500000000     0.329390000000     0.0337396  
C        C      0.255500000000     0.995100000000     0.264890000000     0.0337396  
S        S      0.466100000000     0.104940000000     0.893480000000     0.311923   
S        S      0.966100000000     0.395060000000     0.606520000000     0.311923   
S        S      0.533900000000     0.895060000000     0.106520000000     0.311923   
S        S      0.033900000000     0.604940000000     0.393480000000     0.311923   
O        O      0.411700000000     0.237460000000     0.190880000000    -0.452134   
O        O      0.021400000000     0.231160000000     0.171780000000    -0.452134   
O        O      0.028100000000     0.515120000000     0.755670000000    -0.452134   
O        O      0.308700000000     0.008810000000     0.869620000000    -0.452134   
O        O      0.422500000000     0.541840000000     0.746330000000    -0.452134   
O        O      0.721800000000     0.088740000000     0.889720000000    -0.452134   
O        O      0.911700000000     0.262540000000     0.309120000000    -0.452134   
O        O      0.521400000000     0.268840000000     0.328220000000    -0.452134   
O        O      0.528100000000     0.984880000000     0.744330000000    -0.452134   
O        O      0.808700000000     0.491190000000     0.630380000000    -0.452134   
O        O      0.922500000000     0.958160000000     0.753670000000    -0.452134   
O        O      0.221800000000     0.411260000000     0.610280000000    -0.452134   
O        O      0.588300000000     0.762540000000     0.809120000000    -0.452134   
O        O      0.978600000000     0.768840000000     0.828220000000    -0.452134   
O        O      0.971900000000     0.484880000000     0.244330000000    -0.452134   
O        O      0.691300000000     0.991190000000     0.130380000000    -0.452134   
O        O      0.577500000000     0.458160000000     0.253670000000    -0.452134   
O        O      0.278200000000     0.911260000000     0.110280000000    -0.452134   
O        O      0.088300000000     0.737460000000     0.690880000000    -0.452134   
O        O      0.478600000000     0.731160000000     0.671780000000    -0.452134   
O        O      0.471900000000     0.015120000000     0.255670000000    -0.452134   
O        O      0.191300000000     0.508810000000     0.369620000000    -0.452134   
O        O      0.077500000000     0.041840000000     0.246330000000    -0.452134   
O        O      0.778200000000     0.588740000000     0.389720000000    -0.452134   


