data_KAYBUJ_original

_audit_creation_method RASPA-1.0
_audit_creation_date 2022-1-30
_audit_author_name 'Felipe Lopes de Oliveira <felipe.lopes.oliveira@ibm.com>'

_cell_length_a    6.4275
_cell_length_b    10.9764
_cell_length_c    16.387
_cell_angle_alpha 90
_cell_angle_beta  90
_cell_angle_gamma 99.182
_cell_volume      1141.3

_symmetry_cell_setting          triclinic
_symmetry_space_group_name_Hall 'P 1'
_symmetry_space_group_name_H-M  'P 1'
_symmetry_Int_Tables_number     1

_symmetry_equiv_pos_as_xyz 'x,y,z'

loop_
_atom_site_label
_atom_site_type_symbol
_atom_site_fract_x
_atom_site_fract_y
_atom_site_fract_z
_atom_site_charge
Ca       Ca     0.782210000000     0.580600000000     0.957850000000     1.36453    
Ca       Ca     0.717790000000     0.919400000000     0.457850000000     1.36453    
Ca       Ca     0.217790000000     0.419400000000     0.042150000000     1.36453    
Ca       Ca     0.282210000000     0.080600000000     0.542150000000     1.36453    
H        H      0.222300000000     0.755600000000     0.762100000000     0.0275485  
H        H      0.804100000000     0.863400000000     0.675400000000     0.0275485  
H        H      0.927500000000     0.768000000000     0.785200000000     0.0275485  
H        H      0.277700000000     0.744400000000     0.262100000000     0.0275485  
H        H      0.695900000000     0.636600000000     0.175400000000     0.0275485  
H        H      0.572500000000     0.732000000000     0.285200000000     0.0275485  
H        H      0.777700000000     0.244400000000     0.237900000000     0.0275485  
H        H      0.195900000000     0.136600000000     0.324600000000     0.0275485  
H        H      0.072500000000     0.232000000000     0.214800000000     0.0275485  
H        H      0.722300000000     0.255600000000     0.737900000000     0.0275485  
H        H      0.304100000000     0.363400000000     0.824600000000     0.0275485  
H        H      0.427500000000     0.268000000000     0.714800000000     0.0275485  
C        C      0.451500000000     0.700000000000     0.829040000000     0.0857238  
C        C      0.398000000000     0.884800000000     0.638070000000     0.0857238  
C        C      0.367400000000     0.757900000000     0.765170000000     0.0857238  
C        C      0.710800000000     0.822700000000     0.713620000000     0.0857238  
C        C      0.496000000000     0.819300000000     0.705710000000     0.0857238  
C        C      0.310100000000     0.635600000000     0.895710000000     0.0857238  
C        C      0.782600000000     0.764000000000     0.779790000000     0.0857238  
C        C      0.048500000000     0.800000000000     0.329040000000     0.0857238  
C        C      0.102000000000     0.615200000000     0.138070000000     0.0857238  
C        C      0.132600000000     0.742100000000     0.265170000000     0.0857238  
C        C      0.789200000000     0.677300000000     0.213620000000     0.0857238  
C        C      0.004000000000     0.680700000000     0.205710000000     0.0857238  
C        C      0.189900000000     0.864400000000     0.395710000000     0.0857238  
C        C      0.717400000000     0.736000000000     0.279790000000     0.0857238  
C        C      0.548500000000     0.300000000000     0.170960000000     0.0857238  
C        C      0.602000000000     0.115200000000     0.361930000000     0.0857238  
C        C      0.632600000000     0.242100000000     0.234830000000     0.0857238  
C        C      0.289200000000     0.177300000000     0.286380000000     0.0857238  
C        C      0.504000000000     0.180700000000     0.294290000000     0.0857238  
C        C      0.689900000000     0.364400000000     0.104290000000     0.0857238  
C        C      0.217400000000     0.236000000000     0.220210000000     0.0857238  
C        C      0.951500000000     0.200000000000     0.670960000000     0.0857238  
C        C      0.898000000000     0.384800000000     0.861930000000     0.0857238  
C        C      0.867400000000     0.257900000000     0.734830000000     0.0857238  
C        C      0.210800000000     0.322700000000     0.786380000000     0.0857238  
C        C      0.996000000000     0.319300000000     0.794290000000     0.0857238  
C        C      0.810100000000     0.135600000000     0.604290000000     0.0857238  
C        C      0.282600000000     0.264000000000     0.720210000000     0.0857238  
N        N      0.659600000000     0.701300000000     0.837100000000    -0.18046    
N        N      0.840400000000     0.798700000000     0.337100000000    -0.18046    
N        N      0.340400000000     0.298700000000     0.162900000000    -0.18046    
N        N      0.159600000000     0.201300000000     0.662900000000    -0.18046    
O        O      0.394700000000     0.571670000000     0.946340000000    -0.466695   
O        O      0.490500000000     0.899320000000     0.570630000000    -0.466695   
O        O      0.230800000000     0.924080000000     0.653170000000    -0.466695   
O        O      0.123900000000     0.654040000000     0.894960000000    -0.466695   
O        O      0.105300000000     0.928330000000     0.446340000000    -0.466695   
O        O      0.009500000000     0.600680000000     0.070630000000    -0.466695   
O        O      0.269200000000     0.575920000000     0.153170000000    -0.466695   
O        O      0.376100000000     0.845960000000     0.394960000000    -0.466695   
O        O      0.605300000000     0.428330000000     0.053660000000    -0.466695   
O        O      0.509500000000     0.100680000000     0.429370000000    -0.466695   
O        O      0.769200000000     0.075920000000     0.346830000000    -0.466695   
O        O      0.876100000000     0.345960000000     0.105040000000    -0.466695   
O        O      0.894700000000     0.071670000000     0.553660000000    -0.466695   
O        O      0.990500000000     0.399320000000     0.929370000000    -0.466695   
O        O      0.730800000000     0.424080000000     0.846830000000    -0.466695   
O        O      0.623900000000     0.154040000000     0.605040000000    -0.466695   


