data_KAYBIX_original

_audit_creation_method RASPA-1.0
_audit_creation_date 2022-1-29
_audit_author_name 'Felipe Lopes de Oliveira <felipe.lopes.oliveira@ibm.com>'

_cell_length_a    6.4463
_cell_length_b    10.9728
_cell_length_c    16.0996
_cell_angle_alpha 90
_cell_angle_beta  99.775
_cell_angle_gamma 90
_cell_volume      1122.26

_symmetry_cell_setting          triclinic
_symmetry_space_group_name_Hall 'P 1'
_symmetry_space_group_name_H-M  'P 1'
_symmetry_Int_Tables_number     1

_symmetry_equiv_pos_as_xyz 'x,y,z'

loop_
_atom_site_label
_atom_site_type_symbol
_atom_site_fract_x
_atom_site_fract_y
_atom_site_fract_z
_atom_site_charge
Ca       Ca     0.242970000000     0.928480000000     0.952230000000     1.362      
Ca       Ca     0.257030000000     0.428480000000     0.547770000000     1.362      
Ca       Ca     0.757030000000     0.071520000000     0.047770000000     1.362      
Ca       Ca     0.742970000000     0.571520000000     0.452230000000     1.362      
H        H      0.566900000000     0.717600000000     0.765300000000     0.0211415  
H        H      0.265400000000     0.772600000000     0.766200000000     0.0211415  
H        H      0.719900000000     0.624300000000     0.662400000000     0.0211415  
H        H      0.933100000000     0.217600000000     0.734700000000     0.0211415  
H        H      0.234600000000     0.272600000000     0.733800000000     0.0211415  
H        H      0.780100000000     0.124300000000     0.837600000000     0.0211415  
H        H      0.433100000000     0.282400000000     0.234700000000     0.0211415  
H        H      0.734600000000     0.227400000000     0.233800000000     0.0211415  
H        H      0.280100000000     0.375700000000     0.337600000000     0.0211415  
H        H      0.066900000000     0.782400000000     0.265300000000     0.0211415  
H        H      0.765400000000     0.727400000000     0.266200000000     0.0211415  
H        H      0.219900000000     0.875700000000     0.162400000000     0.0211415  
C        C      0.011900000000     0.689700000000     0.702600000000     0.0920381  
C        C      0.828600000000     0.803000000000     0.823000000000     0.0920381  
C        C      0.709200000000     0.729200000000     0.763900000000     0.0920381  
C        C      0.121700000000     0.762400000000     0.765000000000     0.0920381  
C        C      0.800100000000     0.673000000000     0.702900000000     0.0920381  
C        C      0.121400000000     0.624600000000     0.639300000000     0.0920381  
C        C      0.730700000000     0.867300000000     0.890300000000     0.0920381  
C        C      0.488100000000     0.189700000000     0.797400000000     0.0920381  
C        C      0.671400000000     0.303000000000     0.677000000000     0.0920381  
C        C      0.790800000000     0.229200000000     0.736100000000     0.0920381  
C        C      0.378300000000     0.262400000000     0.735000000000     0.0920381  
C        C      0.699900000000     0.173000000000     0.797100000000     0.0920381  
C        C      0.378600000000     0.124600000000     0.860700000000     0.0920381  
C        C      0.769300000000     0.367300000000     0.609700000000     0.0920381  
C        C      0.988100000000     0.310300000000     0.297400000000     0.0920381  
C        C      0.171400000000     0.197000000000     0.177000000000     0.0920381  
C        C      0.290800000000     0.270800000000     0.236100000000     0.0920381  
C        C      0.878300000000     0.237600000000     0.235000000000     0.0920381  
C        C      0.199900000000     0.327000000000     0.297100000000     0.0920381  
C        C      0.878600000000     0.375400000000     0.360700000000     0.0920381  
C        C      0.269300000000     0.132700000000     0.109700000000     0.0920381  
C        C      0.511900000000     0.810300000000     0.202600000000     0.0920381  
C        C      0.328600000000     0.697000000000     0.323000000000     0.0920381  
C        C      0.209200000000     0.770800000000     0.263900000000     0.0920381  
C        C      0.621700000000     0.737600000000     0.265000000000     0.0920381  
C        C      0.300100000000     0.827000000000     0.202900000000     0.0920381  
C        C      0.621400000000     0.875400000000     0.139300000000     0.0920381  
C        C      0.230700000000     0.632700000000     0.390300000000     0.0920381  
N        N      0.033700000000     0.819100000000     0.824100000000    -0.204641   
N        N      0.466300000000     0.319100000000     0.675900000000    -0.204641   
N        N      0.966300000000     0.180900000000     0.175900000000    -0.204641   
N        N      0.533700000000     0.680900000000     0.324100000000    -0.204641   
O        O      0.854000000000     0.931000000000     0.942630000000    -0.466263   
O        O      0.538600000000     0.852000000000     0.887990000000    -0.466263   
O        O      0.308200000000     0.594700000000     0.660760000000    -0.466263   
O        O      0.016000000000     0.600500000000     0.568630000000    -0.466263   
O        O      0.646000000000     0.431000000000     0.557370000000    -0.466263   
O        O      0.961400000000     0.352000000000     0.612010000000    -0.466263   
O        O      0.191800000000     0.094700000000     0.839240000000    -0.466263   
O        O      0.484000000000     0.100500000000     0.931370000000    -0.466263   
O        O      0.146000000000     0.069000000000     0.057370000000    -0.466263   
O        O      0.461400000000     0.148000000000     0.112010000000    -0.466263   
O        O      0.691800000000     0.405300000000     0.339240000000    -0.466263   
O        O      0.984000000000     0.399500000000     0.431370000000    -0.466263   
O        O      0.354000000000     0.569000000000     0.442630000000    -0.466263   
O        O      0.038600000000     0.648000000000     0.387990000000    -0.466263   
O        O      0.808200000000     0.905300000000     0.160760000000    -0.466263   
O        O      0.516000000000     0.899500000000     0.068630000000    -0.466263   


