data_KAYCIY_original

_audit_creation_method RASPA-1.0
_audit_creation_date 2022-1-28
_audit_author_name 'Felipe Lopes de Oliveira <felipe.lopes.oliveira@ibm.com>'

_cell_length_a    12.0501
_cell_length_b    13.9638
_cell_length_c    14.7073
_cell_angle_alpha 98.257
_cell_angle_beta  111.863
_cell_angle_gamma 107.785
_cell_volume      2092.18

_symmetry_cell_setting          triclinic
_symmetry_space_group_name_Hall 'P 1'
_symmetry_space_group_name_H-M  'P 1'
_symmetry_Int_Tables_number     1

_symmetry_equiv_pos_as_xyz 'x,y,z'

loop_
_atom_site_label
_atom_site_type_symbol
_atom_site_fract_x
_atom_site_fract_y
_atom_site_fract_z
_atom_site_charge
Ca       Ca     0.700800000000     0.580440000000     0.577210000000     1.38098    
Ca       Ca     0.461790000000     0.938290000000     0.137710000000     1.38098    
Ca       Ca     0.299200000000     0.419560000000     0.422790000000     1.38098    
Ca       Ca     0.538210000000     0.061710000000     0.862290000000     1.38098    
Ca       Ca     0.000000000000     0.000000000000     0.500000000000     1.38098    
Ca       Ca     0.000000000000     0.500000000000     0.000000000000     1.38098    
H        H      0.963500000000     0.793600000000     0.620600000000    -0.0342389  
H        H      0.509500000000     0.603400000000     0.366600000000    -0.0342389  
H        H      0.933400000000     0.649500000000     0.823200000000    -0.0342389  
H        H      0.253900000000     0.904500000000     0.904300000000    -0.0342389  
H        H      0.675400000000     0.866900000000     0.308600000000    -0.0342389  
H        H      0.301500000000     0.706700000000     0.152300000000    -0.0342389  
H        H      0.572300000000     0.797700000000     0.791100000000    -0.0342389  
H        H      0.311200000000     0.654900000000     0.883900000000    -0.0342389  
H        H      0.338500000000     0.493800000000     0.661000000000    -0.0342389  
H        H      0.036500000000     0.206400000000     0.379400000000    -0.0342389  
H        H      0.490500000000     0.396600000000     0.633400000000    -0.0342389  
H        H      0.066600000000     0.350500000000     0.176800000000    -0.0342389  
H        H      0.746100000000     0.095500000000     0.095700000000    -0.0342389  
H        H      0.324600000000     0.133100000000     0.691400000000    -0.0342389  
H        H      0.698500000000     0.293300000000     0.847700000000    -0.0342389  
H        H      0.427700000000     0.202300000000     0.208900000000    -0.0342389  
H        H      0.688800000000     0.345100000000     0.116100000000    -0.0342389  
H        H      0.661500000000     0.506200000000     0.339000000000    -0.0342389  
C        C      0.122230000000     0.861610000000     0.756030000000     0.129087   
C        C      0.101500000000     0.774800000000     0.881600000000     0.129087   
C        C      0.998700000000     0.788140000000     0.686710000000     0.129087   
C        C      0.385300000000     0.640820000000     0.256060000000     0.129087   
C        C      0.504100000000     0.652530000000     0.330420000000     0.129087   
C        C      0.614800000000     0.737600000000     0.350770000000     0.129087   
C        C      0.980700000000     0.704180000000     0.806180000000     0.129087   
C        C      0.172900000000     0.855300000000     0.855590000000     0.129087   
C        C      0.744600000000     0.755660000000     0.434240000000     0.129087   
C        C      0.531300000000     0.633390000000     0.646680000000     0.129087   
C        C      0.448200000000     0.742270000000     0.851350000000     0.129087   
C        C      0.465800000000     0.643480000000     0.714300000000     0.129087   
C        C      0.601500000000     0.809230000000     0.295020000000     0.129087   
C        C      0.381100000000     0.715120000000     0.203250000000     0.129087   
C        C      0.196800000000     0.941640000000     0.719080000000     0.129087   
C        C      0.492300000000     0.841980000000     0.933340000000     0.129087   
C        C      0.262700000000     0.551820000000     0.235770000000     0.129087   
C        C      0.150000000000     0.761300000000     0.988110000000     0.129087   
C        C      0.506700000000     0.738010000000     0.786340000000     0.129087   
C        C      0.350500000000     0.651700000000     0.840400000000     0.129087   
C        C      0.366400000000     0.557100000000     0.709700000000     0.129087   
C        C      0.877770000000     0.138390000000     0.243970000000     0.129087   
C        C      0.898500000000     0.225200000000     0.118400000000     0.129087   
C        C      0.001300000000     0.211860000000     0.313290000000     0.129087   
C        C      0.614700000000     0.359180000000     0.743940000000     0.129087   
C        C      0.495900000000     0.347470000000     0.669580000000     0.129087   
C        C      0.385200000000     0.262400000000     0.649230000000     0.129087   
C        C      0.019300000000     0.295820000000     0.193820000000     0.129087   
C        C      0.827100000000     0.144700000000     0.144410000000     0.129087   
C        C      0.255400000000     0.244340000000     0.565760000000     0.129087   
C        C      0.468700000000     0.366610000000     0.353320000000     0.129087   
C        C      0.551800000000     0.257730000000     0.148650000000     0.129087   
C        C      0.534200000000     0.356520000000     0.285700000000     0.129087   
C        C      0.398500000000     0.190770000000     0.704980000000     0.129087   
C        C      0.618900000000     0.284880000000     0.796750000000     0.129087   
C        C      0.803200000000     0.058360000000     0.280920000000     0.129087   
C        C      0.507700000000     0.158020000000     0.066660000000     0.129087   
C        C      0.737300000000     0.448180000000     0.764230000000     0.129087   
C        C      0.850000000000     0.238700000000     0.011890000000     0.129087   
C        C      0.493300000000     0.261990000000     0.213660000000     0.129087   
C        C      0.649500000000     0.348300000000     0.159600000000     0.129087   
C        C      0.633600000000     0.442900000000     0.290300000000     0.129087   
N        N      0.928260000000     0.710130000000     0.710310000000    -0.228462   
N        N      0.487090000000     0.798840000000     0.222570000000    -0.228462   
N        N      0.308600000000     0.559690000000     0.771300000000    -0.228462   
N        N      0.071740000000     0.289870000000     0.289690000000    -0.228462   
N        N      0.512910000000     0.201160000000     0.777430000000    -0.228462   
N        N      0.691400000000     0.440310000000     0.228700000000    -0.228462   
O        O      0.241800000000     0.838130000000     0.059080000000    -0.488352   
O        O      0.747600000000     0.688420000000     0.481660000000    -0.488352   
O        O      0.476150000000     0.553880000000     0.569630000000    -0.488352   
O        O      0.316400000000     0.986780000000     0.773560000000    -0.488352   
O        O      0.135780000000     0.956150000000     0.636200000000    -0.488352   
O        O      0.159850000000     0.539430000000     0.163110000000    -0.488352   
O        O      0.273150000000     0.496860000000     0.295430000000    -0.488352   
O        O      0.840040000000     0.835040000000     0.450820000000    -0.488352   
O        O      0.093830000000     0.674930000000     0.997740000000    -0.488352   
O        O      0.558300000000     0.925910000000     0.925930000000    -0.488352   
O        O      0.640400000000     0.701390000000     0.670920000000    -0.488352   
O        O      0.459700000000     0.832000000000     0.003580000000    -0.488352   
O        O      0.758200000000     0.161870000000     0.940920000000    -0.488352   
O        O      0.252400000000     0.311580000000     0.518340000000    -0.488352   
O        O      0.523850000000     0.446120000000     0.430370000000    -0.488352   
O        O      0.683600000000     0.013220000000     0.226440000000    -0.488352   
O        O      0.864220000000     0.043850000000     0.363800000000    -0.488352   
O        O      0.840150000000     0.460570000000     0.836890000000    -0.488352   
O        O      0.726850000000     0.503140000000     0.704570000000    -0.488352   
O        O      0.159960000000     0.164960000000     0.549180000000    -0.488352   
O        O      0.906170000000     0.325070000000     0.002260000000    -0.488352   
O        O      0.441700000000     0.074090000000     0.074070000000    -0.488352   
O        O      0.359600000000     0.298610000000     0.329080000000    -0.488352   
O        O      0.540300000000     0.168000000000     0.996420000000    -0.488352   


