data_KEDQAN_original

_audit_creation_method RASPA-1.0
_audit_creation_date 2022-1-29
_audit_author_name 'Felipe Lopes de Oliveira <felipe.lopes.oliveira@ibm.com>'

_cell_length_a    11.98
_cell_length_b    17.982
_cell_length_c    18.625
_cell_angle_alpha 90
_cell_angle_beta  90
_cell_angle_gamma 90
_cell_volume      4012.28

_symmetry_cell_setting          triclinic
_symmetry_space_group_name_Hall 'P 1'
_symmetry_space_group_name_H-M  'P 1'
_symmetry_Int_Tables_number     1

_symmetry_equiv_pos_as_xyz 'x,y,z'

loop_
_atom_site_label
_atom_site_type_symbol
_atom_site_fract_x
_atom_site_fract_y
_atom_site_fract_z
_atom_site_charge
Zn       Zn     0.389900000000     0.802650000000     0.509130000000     0.493565   
Zn       Zn     0.110100000000     0.802650000000     0.490870000000     0.493565   
Zn       Zn     0.610100000000     0.697350000000     0.509130000000     0.493565   
Zn       Zn     0.889900000000     0.697350000000     0.490870000000     0.493565   
Zn       Zn     0.610100000000     0.197350000000     0.490870000000     0.493565   
Zn       Zn     0.889900000000     0.197350000000     0.509130000000     0.493565   
Zn       Zn     0.389900000000     0.302650000000     0.490870000000     0.493565   
Zn       Zn     0.110100000000     0.302650000000     0.509130000000     0.493565   
H        H      0.374500000000     0.743700000000     0.292800000000     0.0624899  
H        H      0.384300000000     0.829900000000     0.735800000000     0.0624899  
H        H      0.396900000000     0.065800000000     0.326200000000     0.0624899  
H        H      0.386900000000     0.831500000000     0.858800000000     0.0624899  
H        H      0.357400000000     0.806900000000     0.968200000000     0.0624899  
H        H      0.290900000000     0.837400000000     0.357300000000     0.0624899  
H        H      0.355300000000     0.805100000000     0.091000000000     0.0624899  
H        H      0.151200000000     0.919700000000     0.362800000000     0.0624899  
H        H      0.510900000000     0.894300000000     0.162200000000     0.0624899  
H        H      0.428300000000     0.988500000000     0.227700000000     0.0624899  
H        H      0.051300000000     0.010300000000     0.422600000000     0.0624899  
H        H      0.297200000000     0.155800000000     0.386200000000     0.0624899  
H        H      0.125500000000     0.743700000000     0.707200000000     0.0624899  
H        H      0.115700000000     0.829900000000     0.264200000000     0.0624899  
H        H      0.103100000000     0.065800000000     0.673800000000     0.0624899  
H        H      0.113100000000     0.831500000000     0.141200000000     0.0624899  
H        H      0.142600000000     0.806900000000     0.031800000000     0.0624899  
H        H      0.209100000000     0.837400000000     0.642700000000     0.0624899  
H        H      0.144700000000     0.805100000000     0.909000000000     0.0624899  
H        H      0.348800000000     0.919700000000     0.637200000000     0.0624899  
H        H      0.989100000000     0.894300000000     0.837800000000     0.0624899  
H        H      0.071700000000     0.988500000000     0.772300000000     0.0624899  
H        H      0.448700000000     0.010300000000     0.577400000000     0.0624899  
H        H      0.202800000000     0.155800000000     0.613800000000     0.0624899  
H        H      0.625500000000     0.756300000000     0.292800000000     0.0624899  
H        H      0.615700000000     0.670100000000     0.735800000000     0.0624899  
H        H      0.603100000000     0.434200000000     0.326200000000     0.0624899  
H        H      0.613100000000     0.668500000000     0.858800000000     0.0624899  
H        H      0.642600000000     0.693100000000     0.968200000000     0.0624899  
H        H      0.709100000000     0.662600000000     0.357300000000     0.0624899  
H        H      0.644700000000     0.694900000000     0.091000000000     0.0624899  
H        H      0.848800000000     0.580300000000     0.362800000000     0.0624899  
H        H      0.489100000000     0.605700000000     0.162200000000     0.0624899  
H        H      0.571700000000     0.511500000000     0.227700000000     0.0624899  
H        H      0.948700000000     0.489700000000     0.422600000000     0.0624899  
H        H      0.702800000000     0.344200000000     0.386200000000     0.0624899  
H        H      0.874500000000     0.756300000000     0.707200000000     0.0624899  
H        H      0.884300000000     0.670100000000     0.264200000000     0.0624899  
H        H      0.896900000000     0.434200000000     0.673800000000     0.0624899  
H        H      0.886900000000     0.668500000000     0.141200000000     0.0624899  
H        H      0.857400000000     0.693100000000     0.031800000000     0.0624899  
H        H      0.790900000000     0.662600000000     0.642700000000     0.0624899  
H        H      0.855300000000     0.694900000000     0.909000000000     0.0624899  
H        H      0.651200000000     0.580300000000     0.637200000000     0.0624899  
H        H      0.010900000000     0.605700000000     0.837800000000     0.0624899  
H        H      0.928300000000     0.511500000000     0.772300000000     0.0624899  
H        H      0.551300000000     0.489700000000     0.577400000000     0.0624899  
H        H      0.797200000000     0.344200000000     0.613800000000     0.0624899  
H        H      0.625500000000     0.256300000000     0.707200000000     0.0624899  
H        H      0.615700000000     0.170100000000     0.264200000000     0.0624899  
H        H      0.603100000000     0.934200000000     0.673800000000     0.0624899  
H        H      0.613100000000     0.168500000000     0.141200000000     0.0624899  
H        H      0.642600000000     0.193100000000     0.031800000000     0.0624899  
H        H      0.709100000000     0.162600000000     0.642700000000     0.0624899  
H        H      0.644700000000     0.194900000000     0.909000000000     0.0624899  
H        H      0.848800000000     0.080300000000     0.637200000000     0.0624899  
H        H      0.489100000000     0.105700000000     0.837800000000     0.0624899  
H        H      0.571700000000     0.011500000000     0.772300000000     0.0624899  
H        H      0.948700000000     0.989700000000     0.577400000000     0.0624899  
H        H      0.702800000000     0.844200000000     0.613800000000     0.0624899  
H        H      0.874500000000     0.256300000000     0.292800000000     0.0624899  
H        H      0.884300000000     0.170100000000     0.735800000000     0.0624899  
H        H      0.896900000000     0.934200000000     0.326200000000     0.0624899  
H        H      0.886900000000     0.168500000000     0.858800000000     0.0624899  
H        H      0.857400000000     0.193100000000     0.968200000000     0.0624899  
H        H      0.790900000000     0.162600000000     0.357300000000     0.0624899  
H        H      0.855300000000     0.194900000000     0.091000000000     0.0624899  
H        H      0.651200000000     0.080300000000     0.362800000000     0.0624899  
H        H      0.010900000000     0.105700000000     0.162200000000     0.0624899  
H        H      0.928300000000     0.011500000000     0.227700000000     0.0624899  
H        H      0.551300000000     0.989700000000     0.422600000000     0.0624899  
H        H      0.797200000000     0.844200000000     0.386200000000     0.0624899  
H        H      0.374500000000     0.243700000000     0.707200000000     0.0624899  
H        H      0.384300000000     0.329900000000     0.264200000000     0.0624899  
H        H      0.396900000000     0.565800000000     0.673800000000     0.0624899  
H        H      0.386900000000     0.331500000000     0.141200000000     0.0624899  
H        H      0.357400000000     0.306900000000     0.031800000000     0.0624899  
H        H      0.290900000000     0.337400000000     0.642700000000     0.0624899  
H        H      0.355300000000     0.305100000000     0.909000000000     0.0624899  
H        H      0.151200000000     0.419700000000     0.637200000000     0.0624899  
H        H      0.510900000000     0.394300000000     0.837800000000     0.0624899  
H        H      0.428300000000     0.488500000000     0.772300000000     0.0624899  
H        H      0.051300000000     0.510300000000     0.577400000000     0.0624899  
H        H      0.297200000000     0.655800000000     0.613800000000     0.0624899  
H        H      0.125500000000     0.243700000000     0.292800000000     0.0624899  
H        H      0.115700000000     0.329900000000     0.735800000000     0.0624899  
H        H      0.103100000000     0.565800000000     0.326200000000     0.0624899  
H        H      0.113100000000     0.331500000000     0.858800000000     0.0624899  
H        H      0.142600000000     0.306900000000     0.968200000000     0.0624899  
H        H      0.209100000000     0.337400000000     0.357300000000     0.0624899  
H        H      0.144700000000     0.305100000000     0.091000000000     0.0624899  
H        H      0.348800000000     0.419700000000     0.362800000000     0.0624899  
H        H      0.989100000000     0.394300000000     0.162200000000     0.0624899  
H        H      0.071700000000     0.488500000000     0.227700000000     0.0624899  
H        H      0.448700000000     0.510300000000     0.422600000000     0.0624899  
H        H      0.202800000000     0.655800000000     0.386200000000     0.0624899  
H        H      0.250000000000     0.404300000000     0.500000000000     0.0624899  
H        H      0.750000000000     0.095700000000     0.500000000000     0.0624899  
H        H      0.750000000000     0.595700000000     0.500000000000     0.0624899  
H        H      0.250000000000     0.904300000000     0.500000000000     0.0624899  
C        C      0.384500000000     0.792920000000     0.278800000000    -0.000411147
C        C      0.431600000000     0.797690000000     0.760410000000    -0.000411147
C        C      0.449100000000     0.808840000000     0.219820000000    -0.000411147
C        C      0.327400000000     0.054180000000     0.345400000000    -0.000411147
C        C      0.432500000000     0.798170000000     0.834430000000    -0.000411147
C        C      0.285400000000     0.982280000000     0.337760000000    -0.000411147
C        C      0.346900000000     0.923070000000     0.298360000000    -0.000411147
C        C      0.415300000000     0.783400000000     0.992530000000    -0.000411147
C        C      0.334200000000     0.849320000000     0.317530000000    -0.000411147
C        C      0.414300000000     0.783000000000     0.066600000000    -0.000411147
C        C      0.181100000000     0.967180000000     0.367220000000    -0.000411147
C        C      0.465800000000     0.882560000000     0.201260000000    -0.000411147
C        C      0.415600000000     0.939210000000     0.240500000000    -0.000411147
C        C      0.163100000000     0.092750000000     0.409820000000    -0.000411147
C        C      0.120700000000     0.021730000000     0.403040000000    -0.000411147
C        C      0.267400000000     0.108360000000     0.381200000000    -0.000411147
C        C      0.098000000000     0.150690000000     0.447700000000    -0.000411147
C        C      0.115500000000     0.792920000000     0.721200000000    -0.000411147
C        C      0.068400000000     0.797690000000     0.239590000000    -0.000411147
C        C      0.050900000000     0.808840000000     0.780180000000    -0.000411147
C        C      0.172600000000     0.054180000000     0.654600000000    -0.000411147
C        C      0.067500000000     0.798170000000     0.165570000000    -0.000411147
C        C      0.214600000000     0.982280000000     0.662240000000    -0.000411147
C        C      0.153100000000     0.923070000000     0.701640000000    -0.000411147
C        C      0.084700000000     0.783400000000     0.007470000000    -0.000411147
C        C      0.165800000000     0.849320000000     0.682470000000    -0.000411147
C        C      0.085700000000     0.783000000000     0.933400000000    -0.000411147
C        C      0.318900000000     0.967180000000     0.632780000000    -0.000411147
C        C      0.034200000000     0.882560000000     0.798740000000    -0.000411147
C        C      0.084400000000     0.939210000000     0.759500000000    -0.000411147
C        C      0.336900000000     0.092750000000     0.590180000000    -0.000411147
C        C      0.379300000000     0.021730000000     0.596960000000    -0.000411147
C        C      0.232600000000     0.108360000000     0.618800000000    -0.000411147
C        C      0.402000000000     0.150690000000     0.552300000000    -0.000411147
C        C      0.615500000000     0.707080000000     0.278800000000    -0.000411147
C        C      0.568400000000     0.702310000000     0.760410000000    -0.000411147
C        C      0.550900000000     0.691160000000     0.219820000000    -0.000411147
C        C      0.672600000000     0.445820000000     0.345400000000    -0.000411147
C        C      0.567500000000     0.701830000000     0.834430000000    -0.000411147
C        C      0.714600000000     0.517720000000     0.337760000000    -0.000411147
C        C      0.653100000000     0.576930000000     0.298360000000    -0.000411147
C        C      0.584700000000     0.716600000000     0.992530000000    -0.000411147
C        C      0.665800000000     0.650680000000     0.317530000000    -0.000411147
C        C      0.585700000000     0.717000000000     0.066600000000    -0.000411147
C        C      0.818900000000     0.532820000000     0.367220000000    -0.000411147
C        C      0.534200000000     0.617440000000     0.201260000000    -0.000411147
C        C      0.584400000000     0.560790000000     0.240500000000    -0.000411147
C        C      0.836900000000     0.407250000000     0.409820000000    -0.000411147
C        C      0.879300000000     0.478270000000     0.403040000000    -0.000411147
C        C      0.732600000000     0.391640000000     0.381200000000    -0.000411147
C        C      0.902000000000     0.349310000000     0.447700000000    -0.000411147
C        C      0.884500000000     0.707080000000     0.721200000000    -0.000411147
C        C      0.931600000000     0.702310000000     0.239590000000    -0.000411147
C        C      0.949100000000     0.691160000000     0.780180000000    -0.000411147
C        C      0.827400000000     0.445820000000     0.654600000000    -0.000411147
C        C      0.932500000000     0.701830000000     0.165570000000    -0.000411147
C        C      0.785400000000     0.517720000000     0.662240000000    -0.000411147
C        C      0.846900000000     0.576930000000     0.701640000000    -0.000411147
C        C      0.915300000000     0.716600000000     0.007470000000    -0.000411147
C        C      0.834200000000     0.650680000000     0.682470000000    -0.000411147
C        C      0.914300000000     0.717000000000     0.933400000000    -0.000411147
C        C      0.681100000000     0.532820000000     0.632780000000    -0.000411147
C        C      0.965800000000     0.617440000000     0.798740000000    -0.000411147
C        C      0.915600000000     0.560790000000     0.759500000000    -0.000411147
C        C      0.663100000000     0.407250000000     0.590180000000    -0.000411147
C        C      0.620700000000     0.478270000000     0.596960000000    -0.000411147
C        C      0.767400000000     0.391640000000     0.618800000000    -0.000411147
C        C      0.598000000000     0.349310000000     0.552300000000    -0.000411147
C        C      0.615500000000     0.207080000000     0.721200000000    -0.000411147
C        C      0.568400000000     0.202310000000     0.239590000000    -0.000411147
C        C      0.550900000000     0.191160000000     0.780180000000    -0.000411147
C        C      0.672600000000     0.945820000000     0.654600000000    -0.000411147
C        C      0.567500000000     0.201830000000     0.165570000000    -0.000411147
C        C      0.714600000000     0.017720000000     0.662240000000    -0.000411147
C        C      0.653100000000     0.076930000000     0.701640000000    -0.000411147
C        C      0.584700000000     0.216600000000     0.007470000000    -0.000411147
C        C      0.665800000000     0.150680000000     0.682470000000    -0.000411147
C        C      0.585700000000     0.217000000000     0.933400000000    -0.000411147
C        C      0.818900000000     0.032820000000     0.632780000000    -0.000411147
C        C      0.534200000000     0.117440000000     0.798740000000    -0.000411147
C        C      0.584400000000     0.060790000000     0.759500000000    -0.000411147
C        C      0.836900000000     0.907250000000     0.590180000000    -0.000411147
C        C      0.879300000000     0.978270000000     0.596960000000    -0.000411147
C        C      0.732600000000     0.891640000000     0.618800000000    -0.000411147
C        C      0.902000000000     0.849310000000     0.552300000000    -0.000411147
C        C      0.884500000000     0.207080000000     0.278800000000    -0.000411147
C        C      0.931600000000     0.202310000000     0.760410000000    -0.000411147
C        C      0.949100000000     0.191160000000     0.219820000000    -0.000411147
C        C      0.827400000000     0.945820000000     0.345400000000    -0.000411147
C        C      0.932500000000     0.201830000000     0.834430000000    -0.000411147
C        C      0.785400000000     0.017720000000     0.337760000000    -0.000411147
C        C      0.846900000000     0.076930000000     0.298360000000    -0.000411147
C        C      0.915300000000     0.216600000000     0.992530000000    -0.000411147
C        C      0.834200000000     0.150680000000     0.317530000000    -0.000411147
C        C      0.914300000000     0.217000000000     0.066600000000    -0.000411147
C        C      0.681100000000     0.032820000000     0.367220000000    -0.000411147
C        C      0.965800000000     0.117440000000     0.201260000000    -0.000411147
C        C      0.915600000000     0.060790000000     0.240500000000    -0.000411147
C        C      0.663100000000     0.907250000000     0.409820000000    -0.000411147
C        C      0.620700000000     0.978270000000     0.403040000000    -0.000411147
C        C      0.767400000000     0.891640000000     0.381200000000    -0.000411147
C        C      0.598000000000     0.849310000000     0.447700000000    -0.000411147
C        C      0.384500000000     0.292920000000     0.721200000000    -0.000411147
C        C      0.431600000000     0.297690000000     0.239590000000    -0.000411147
C        C      0.449100000000     0.308840000000     0.780180000000    -0.000411147
C        C      0.327400000000     0.554180000000     0.654600000000    -0.000411147
C        C      0.432500000000     0.298170000000     0.165570000000    -0.000411147
C        C      0.285400000000     0.482280000000     0.662240000000    -0.000411147
C        C      0.346900000000     0.423070000000     0.701640000000    -0.000411147
C        C      0.415300000000     0.283400000000     0.007470000000    -0.000411147
C        C      0.334200000000     0.349320000000     0.682470000000    -0.000411147
C        C      0.414300000000     0.283000000000     0.933400000000    -0.000411147
C        C      0.181100000000     0.467180000000     0.632780000000    -0.000411147
C        C      0.465800000000     0.382560000000     0.798740000000    -0.000411147
C        C      0.415600000000     0.439210000000     0.759500000000    -0.000411147
C        C      0.163100000000     0.592750000000     0.590180000000    -0.000411147
C        C      0.120700000000     0.521730000000     0.596960000000    -0.000411147
C        C      0.267400000000     0.608360000000     0.618800000000    -0.000411147
C        C      0.098000000000     0.650690000000     0.552300000000    -0.000411147
C        C      0.115500000000     0.292920000000     0.278800000000    -0.000411147
C        C      0.068400000000     0.297690000000     0.760410000000    -0.000411147
C        C      0.050900000000     0.308840000000     0.219820000000    -0.000411147
C        C      0.172600000000     0.554180000000     0.345400000000    -0.000411147
C        C      0.067500000000     0.298170000000     0.834430000000    -0.000411147
C        C      0.214600000000     0.482280000000     0.337760000000    -0.000411147
C        C      0.153100000000     0.423070000000     0.298360000000    -0.000411147
C        C      0.084700000000     0.283400000000     0.992530000000    -0.000411147
C        C      0.165800000000     0.349320000000     0.317530000000    -0.000411147
C        C      0.085700000000     0.283000000000     0.066600000000    -0.000411147
C        C      0.318900000000     0.467180000000     0.367220000000    -0.000411147
C        C      0.034200000000     0.382560000000     0.201260000000    -0.000411147
C        C      0.084400000000     0.439210000000     0.240500000000    -0.000411147
C        C      0.336900000000     0.592750000000     0.409820000000    -0.000411147
C        C      0.379300000000     0.521730000000     0.403040000000    -0.000411147
C        C      0.232600000000     0.608360000000     0.381200000000    -0.000411147
C        C      0.402000000000     0.650690000000     0.447700000000    -0.000411147
C        C      0.500000000000     0.750000000000     0.105000000000    -0.000411147
C        C      0.500000000000     0.750000000000     0.873500000000    -0.000411147
C        C      0.500000000000     0.750000000000     0.641550000000    -0.000411147
C        C      0.500000000000     0.750000000000     0.722150000000    -0.000411147
C        C      0.500000000000     0.750000000000     0.953100000000    -0.000411147
C        C      0.000000000000     0.750000000000     0.895000000000    -0.000411147
C        C      0.000000000000     0.750000000000     0.126500000000    -0.000411147
C        C      0.000000000000     0.750000000000     0.358450000000    -0.000411147
C        C      0.000000000000     0.750000000000     0.277850000000    -0.000411147
C        C      0.000000000000     0.750000000000     0.046900000000    -0.000411147
C        C      0.500000000000     0.250000000000     0.895000000000    -0.000411147
C        C      0.500000000000     0.250000000000     0.126500000000    -0.000411147
C        C      0.500000000000     0.250000000000     0.358450000000    -0.000411147
C        C      0.500000000000     0.250000000000     0.277850000000    -0.000411147
C        C      0.500000000000     0.250000000000     0.046900000000    -0.000411147
C        C      0.000000000000     0.250000000000     0.105000000000    -0.000411147
C        C      0.000000000000     0.250000000000     0.873500000000    -0.000411147
C        C      0.000000000000     0.250000000000     0.641550000000    -0.000411147
C        C      0.000000000000     0.250000000000     0.722150000000    -0.000411147
C        C      0.000000000000     0.250000000000     0.953100000000    -0.000411147
N        N      0.500000000000     0.750000000000     0.180670000000    -0.186309   
N        N      0.000000000000     0.750000000000     0.819330000000    -0.186309   
N        N      0.500000000000     0.250000000000     0.819330000000    -0.186309   
N        N      0.000000000000     0.250000000000     0.180670000000    -0.186309   
O        O      0.423060000000     0.784390000000     0.610680000000    -0.335291   
O        O      0.139600000000     0.214890000000     0.451500000000    -0.335291   
O        O      0.005590000000     0.132340000000     0.473550000000    -0.335291   
O        O      0.076940000000     0.784390000000     0.389320000000    -0.335291   
O        O      0.360400000000     0.214890000000     0.548500000000    -0.335291   
O        O      0.494410000000     0.132340000000     0.526450000000    -0.335291   
O        O      0.576940000000     0.715610000000     0.610680000000    -0.335291   
O        O      0.860400000000     0.285110000000     0.451500000000    -0.335291   
O        O      0.994410000000     0.367660000000     0.473550000000    -0.335291   
O        O      0.923060000000     0.715610000000     0.389320000000    -0.335291   
O        O      0.639600000000     0.285110000000     0.548500000000    -0.335291   
O        O      0.505590000000     0.367660000000     0.526450000000    -0.335291   
O        O      0.576940000000     0.215610000000     0.389320000000    -0.335291   
O        O      0.860400000000     0.785110000000     0.548500000000    -0.335291   
O        O      0.994410000000     0.867660000000     0.526450000000    -0.335291   
O        O      0.923060000000     0.215610000000     0.610680000000    -0.335291   
O        O      0.639600000000     0.785110000000     0.451500000000    -0.335291   
O        O      0.505590000000     0.867660000000     0.473550000000    -0.335291   
O        O      0.423060000000     0.284390000000     0.389320000000    -0.335291   
O        O      0.139600000000     0.714890000000     0.548500000000    -0.335291   
O        O      0.005590000000     0.632340000000     0.526450000000    -0.335291   
O        O      0.076940000000     0.284390000000     0.610680000000    -0.335291   
O        O      0.360400000000     0.714890000000     0.451500000000    -0.335291   
O        O      0.494410000000     0.632340000000     0.473550000000    -0.335291   
O        O      0.250000000000     0.352540000000     0.500000000000    -0.335291   
O        O      0.750000000000     0.147460000000     0.500000000000    -0.335291   
O        O      0.750000000000     0.647460000000     0.500000000000    -0.335291   
O        O      0.250000000000     0.852540000000     0.500000000000    -0.335291   


