data_KEFBOO_original

_audit_creation_method RASPA-1.0
_audit_creation_date 2022-1-31
_audit_author_name 'Felipe Lopes de Oliveira <felipe.lopes.oliveira@ibm.com>'

_cell_length_a    15.3301
_cell_length_b    15.3301
_cell_length_c    15.3301
_cell_angle_alpha 102.038
_cell_angle_beta  102.038
_cell_angle_gamma 102.038
_cell_volume      3324.24

_symmetry_cell_setting          triclinic
_symmetry_space_group_name_Hall 'P 1'
_symmetry_space_group_name_H-M  'P 1'
_symmetry_Int_Tables_number     1

_symmetry_equiv_pos_as_xyz 'x,y,z'

loop_
_atom_site_label
_atom_site_type_symbol
_atom_site_fract_x
_atom_site_fract_y
_atom_site_fract_z
_atom_site_charge
Zn       Zn     0.022980000000     0.022980000000     0.416530000000     0.451552   
Zn       Zn     0.416530000000     0.022980000000     0.022980000000     0.451552   
Zn       Zn     0.022980000000     0.416530000000     0.022980000000     0.451552   
Zn       Zn     0.977020000000     0.977020000000     0.583470000000     0.451552   
Zn       Zn     0.977020000000     0.583470000000     0.977020000000     0.451552   
Zn       Zn     0.583470000000     0.977020000000     0.977020000000     0.451552   
H        H      0.303700000000     0.014200000000     0.493800000000     0.0720342  
H        H      0.493800000000     0.303700000000     0.014200000000     0.0720342  
H        H      0.014200000000     0.493800000000     0.303700000000     0.0720342  
H        H      0.985800000000     0.696300000000     0.506200000000     0.0720342  
H        H      0.696300000000     0.506200000000     0.985800000000     0.0720342  
H        H      0.506200000000     0.985800000000     0.696300000000     0.0720342  
H        H      0.696300000000     0.985800000000     0.506200000000     0.0720342  
H        H      0.506200000000     0.696300000000     0.985800000000     0.0720342  
H        H      0.985800000000     0.506200000000     0.696300000000     0.0720342  
H        H      0.014200000000     0.303700000000     0.493800000000     0.0720342  
H        H      0.303700000000     0.493800000000     0.014200000000     0.0720342  
H        H      0.493800000000     0.014200000000     0.303700000000     0.0720342  
H        H      0.259250000000     0.000000000000     0.740750000000     0.0720342  
H        H      0.740750000000     0.259250000000     0.000000000000     0.0720342  
H        H      0.000000000000     0.740750000000     0.259250000000     0.0720342  
H        H      0.740750000000     0.000000000000     0.259250000000     0.0720342  
H        H      0.259250000000     0.740750000000     0.000000000000     0.0720342  
H        H      0.000000000000     0.259250000000     0.740750000000     0.0720342  
C        C      0.266860000000     0.006390000000     0.612370000000     0.0541016  
C        C      0.323980000000     0.008060000000     0.553190000000     0.0541016  
C        C      0.169140000000     0.012670000000     0.578200000000     0.0541016  
C        C      0.612370000000     0.266860000000     0.006390000000     0.0541016  
C        C      0.553190000000     0.323980000000     0.008060000000     0.0541016  
C        C      0.578200000000     0.169140000000     0.012670000000     0.0541016  
C        C      0.006390000000     0.612370000000     0.266860000000     0.0541016  
C        C      0.008060000000     0.553190000000     0.323980000000     0.0541016  
C        C      0.012670000000     0.578200000000     0.169140000000     0.0541016  
C        C      0.993610000000     0.733140000000     0.387630000000     0.0541016  
C        C      0.991940000000     0.676020000000     0.446810000000     0.0541016  
C        C      0.987330000000     0.830860000000     0.421800000000     0.0541016  
C        C      0.733140000000     0.387630000000     0.993610000000     0.0541016  
C        C      0.676020000000     0.446810000000     0.991940000000     0.0541016  
C        C      0.830860000000     0.421800000000     0.987330000000     0.0541016  
C        C      0.387630000000     0.993610000000     0.733140000000     0.0541016  
C        C      0.446810000000     0.991940000000     0.676020000000     0.0541016  
C        C      0.421800000000     0.987330000000     0.830860000000     0.0541016  
C        C      0.733140000000     0.993610000000     0.387630000000     0.0541016  
C        C      0.676020000000     0.991940000000     0.446810000000     0.0541016  
C        C      0.830860000000     0.987330000000     0.421800000000     0.0541016  
C        C      0.387630000000     0.733140000000     0.993610000000     0.0541016  
C        C      0.446810000000     0.676020000000     0.991940000000     0.0541016  
C        C      0.421800000000     0.830860000000     0.987330000000     0.0541016  
C        C      0.993610000000     0.387630000000     0.733140000000     0.0541016  
C        C      0.991940000000     0.446810000000     0.676020000000     0.0541016  
C        C      0.987330000000     0.421800000000     0.830860000000     0.0541016  
C        C      0.006390000000     0.266860000000     0.612370000000     0.0541016  
C        C      0.008060000000     0.323980000000     0.553190000000     0.0541016  
C        C      0.012670000000     0.169140000000     0.578200000000     0.0541016  
C        C      0.266860000000     0.612370000000     0.006390000000     0.0541016  
C        C      0.323980000000     0.553190000000     0.008060000000     0.0541016  
C        C      0.169140000000     0.578200000000     0.012670000000     0.0541016  
C        C      0.612370000000     0.006390000000     0.266860000000     0.0541016  
C        C      0.553190000000     0.008060000000     0.323980000000     0.0541016  
C        C      0.578200000000     0.012670000000     0.169140000000     0.0541016  
C        C      0.413570000000     0.000000000000     0.586430000000     0.0541016  
C        C      0.298290000000     0.000000000000     0.701710000000     0.0541016  
C        C      0.475980000000     0.000000000000     0.524030000000     0.0541016  
C        C      0.586430000000     0.413570000000     0.000000000000     0.0541016  
C        C      0.701710000000     0.298290000000     0.000000000000     0.0541016  
C        C      0.524030000000     0.475970000000     0.000000000000     0.0541016  
C        C      0.000000000000     0.586430000000     0.413570000000     0.0541016  
C        C      0.000000000000     0.701710000000     0.298290000000     0.0541016  
C        C      0.000000000000     0.524020000000     0.475970000000     0.0541016  
C        C      0.586430000000     0.000000000000     0.413570000000     0.0541016  
C        C      0.701710000000     0.000000000000     0.298290000000     0.0541016  
C        C      0.524020000000     0.000000000000     0.475970000000     0.0541016  
C        C      0.413570000000     0.586430000000     0.000000000000     0.0541016  
C        C      0.298290000000     0.701710000000     0.000000000000     0.0541016  
C        C      0.475970000000     0.524020000000     0.000000000000     0.0541016  
C        C      0.000000000000     0.413570000000     0.586430000000     0.0541016  
C        C      0.000000000000     0.298290000000     0.701710000000     0.0541016  
C        C      0.000000000000     0.475980000000     0.524030000000     0.0541016  
O        O      0.146510000000     0.026030000000     0.499720000000    -0.288642   
O        O      0.116970000000     0.997540000000     0.628370000000    -0.288642   
O        O      0.499720000000     0.146510000000     0.026030000000    -0.288642   
O        O      0.628370000000     0.116970000000     0.997540000000    -0.288642   
O        O      0.026030000000     0.499720000000     0.146510000000    -0.288642   
O        O      0.997540000000     0.628370000000     0.116970000000    -0.288642   
O        O      0.973970000000     0.853490000000     0.500280000000    -0.288642   
O        O      0.002460000000     0.883030000000     0.371630000000    -0.288642   
O        O      0.853490000000     0.500280000000     0.973970000000    -0.288642   
O        O      0.883030000000     0.371630000000     0.002460000000    -0.288642   
O        O      0.500280000000     0.973970000000     0.853490000000    -0.288642   
O        O      0.371630000000     0.002460000000     0.883030000000    -0.288642   
O        O      0.853490000000     0.973970000000     0.500280000000    -0.288642   
O        O      0.883030000000     0.002460000000     0.371630000000    -0.288642   
O        O      0.500280000000     0.853490000000     0.973970000000    -0.288642   
O        O      0.371630000000     0.883030000000     0.002460000000    -0.288642   
O        O      0.973970000000     0.500280000000     0.853490000000    -0.288642   
O        O      0.002460000000     0.371630000000     0.883030000000    -0.288642   
O        O      0.026030000000     0.146510000000     0.499720000000    -0.288642   
O        O      0.997540000000     0.116970000000     0.628370000000    -0.288642   
O        O      0.146510000000     0.499720000000     0.026030000000    -0.288642   
O        O      0.116970000000     0.628370000000     0.997540000000    -0.288642   
O        O      0.499720000000     0.026030000000     0.146510000000    -0.288642   
O        O      0.628370000000     0.997540000000     0.116970000000    -0.288642   


