data_KENJEU_original

_audit_creation_method RASPA-1.0
_audit_creation_date 2022-1-31
_audit_author_name 'Felipe Lopes de Oliveira <felipe.lopes.oliveira@ibm.com>'

_cell_length_a    13.6883
_cell_length_b    18.2727
_cell_length_c    24.972
_cell_angle_alpha 101.097
_cell_angle_beta  90
_cell_angle_gamma 90
_cell_volume      6129.27

_symmetry_cell_setting          triclinic
_symmetry_space_group_name_Hall 'P 1'
_symmetry_space_group_name_H-M  'P 1'
_symmetry_Int_Tables_number     1

_symmetry_equiv_pos_as_xyz 'x,y,z'

loop_
_atom_site_label
_atom_site_type_symbol
_atom_site_fract_x
_atom_site_fract_y
_atom_site_fract_z
_atom_site_charge
Zn       Zn     0.185350000000     0.628180000000     0.347690000000     0.372143   
Zn       Zn     0.894650000000     0.772720000000     0.961600000000     0.372143   
Zn       Zn     0.787300000000     0.070780000000     0.338660000000     0.372143   
Zn       Zn     0.685350000000     0.871820000000     0.652310000000     0.372143   
Zn       Zn     0.394650000000     0.727280000000     0.038400000000     0.372143   
Zn       Zn     0.287300000000     0.429220000000     0.661340000000     0.372143   
Zn       Zn     0.814650000000     0.371820000000     0.652310000000     0.372143   
Zn       Zn     0.105350000000     0.227280000000     0.038400000000     0.372143   
Zn       Zn     0.212700000000     0.929220000000     0.661340000000     0.372143   
Zn       Zn     0.314650000000     0.128180000000     0.347690000000     0.372143   
Zn       Zn     0.605350000000     0.272720000000     0.961600000000     0.372143   
Zn       Zn     0.712700000000     0.570780000000     0.338660000000     0.372143   
H        H      0.019500000000     0.613800000000     0.154400000000     0.0559991  
H        H      0.886700000000     0.490300000000     0.024400000000     0.0559991  
H        H      0.887600000000     0.422700000000     0.168100000000     0.0559991  
H        H      0.116400000000     0.589800000000     0.223800000000     0.0559991  
H        H      0.987100000000     0.530000000000     0.347700000000     0.0559991  
H        H      0.889300000000     0.480500000000     0.267000000000     0.0559991  
H        H      0.868600000000     0.618100000000     0.003500000000     0.0559991  
H        H      0.089300000000     0.754600000000     0.031800000000     0.0559991  
H        H      0.110900000000     0.663200000000     0.089000000000     0.0559991  
H        H      0.742900000000     0.415700000000     0.008800000000     0.0559991  
H        H      0.726700000000     0.230100000000     0.063600000000     0.0559991  
H        H      0.848600000000     0.307500000000     0.118100000000     0.0559991  
H        H      0.502400000000     0.354800000000     0.317100000000     0.0559991  
H        H      0.541500000000     0.269100000000     0.452100000000     0.0559991  
H        H      0.405100000000     0.465900000000     0.461800000000     0.0559991  
H        H      0.283200000000     0.508800000000     0.405000000000     0.0559991  
H        H      0.377500000000     0.569700000000     0.271900000000     0.0559991  
H        H      0.490500000000     0.476100000000     0.291600000000     0.0559991  
H        H      0.637400000000     0.187200000000     0.404600000000     0.0559991  
H        H      0.578600000000     0.257600000000     0.268500000000     0.0559991  
H        H      0.693500000000     0.155000000000     0.249100000000     0.0559991  
H        H      0.323800000000     0.422100000000     0.537500000000     0.0559991  
H        H      0.493400000000     0.342200000000     0.637500000000     0.0559991  
H        H      0.573700000000     0.318200000000     0.549000000000     0.0559991  
H        H      0.095700000000     0.701700000000     0.526000000000     0.0559991  
H        H      0.262000000000     0.697600000000     0.549400000000     0.0559991  
H        H      0.257300000000     0.610300000000     0.541000000000     0.0559991  
H        H      0.246800000000     0.660300000000     0.632100000000     0.0559991  
H        H      0.157200000000     0.709200000000     0.621900000000     0.0559991  
H        H      0.092900000000     0.614100000000     0.654300000000     0.0559991  
H        H      0.991100000000     0.634900000000     0.588000000000     0.0559991  
H        H      0.998700000000     0.547800000000     0.578400000000     0.0559991  
H        H      0.099700000000     0.544700000000     0.506800000000     0.0559991  
H        H      0.008300000000     0.592400000000     0.497700000000     0.0559991  
H        H      0.208400000000     0.837900000000     0.288700000000     0.0559991  
H        H      0.204200000000     0.748600000000     0.182800000000     0.0559991  
H        H      0.112700000000     0.786400000000     0.214500000000     0.0559991  
H        H      0.169600000000     0.904100000000     0.208000000000     0.0559991  
H        H      0.165400000000     0.855000000000     0.149200000000     0.0559991  
H        H      0.311000000000     0.924400000000     0.165900000000     0.0559991  
H        H      0.428500000000     0.887300000000     0.224400000000     0.0559991  
H        H      0.336400000000     0.924800000000     0.255700000000     0.0559991  
H        H      0.373300000000     0.769900000000     0.231500000000     0.0559991  
H        H      0.375700000000     0.819600000000     0.290200000000     0.0559991  
H        H      0.519500000000     0.886200000000     0.845600000000     0.0559991  
H        H      0.386700000000     0.009700000000     0.975600000000     0.0559991  
H        H      0.387600000000     0.077300000000     0.831900000000     0.0559991  
H        H      0.616400000000     0.910200000000     0.776200000000     0.0559991  
H        H      0.487100000000     0.970000000000     0.652300000000     0.0559991  
H        H      0.389300000000     0.019500000000     0.733000000000     0.0559991  
H        H      0.368600000000     0.881900000000     0.996500000000     0.0559991  
H        H      0.589300000000     0.745400000000     0.968200000000     0.0559991  
H        H      0.610900000000     0.836800000000     0.911000000000     0.0559991  
H        H      0.242900000000     0.084300000000     0.991200000000     0.0559991  
H        H      0.226700000000     0.269900000000     0.936400000000     0.0559991  
H        H      0.348600000000     0.192500000000     0.881900000000     0.0559991  
H        H      0.002400000000     0.145200000000     0.682900000000     0.0559991  
H        H      0.041500000000     0.230900000000     0.547900000000     0.0559991  
H        H      0.905100000000     0.034100000000     0.538200000000     0.0559991  
H        H      0.783200000000     0.991200000000     0.595000000000     0.0559991  
H        H      0.877500000000     0.930300000000     0.728100000000     0.0559991  
H        H      0.990500000000     0.023900000000     0.708400000000     0.0559991  
H        H      0.137400000000     0.312800000000     0.595400000000     0.0559991  
H        H      0.078600000000     0.242400000000     0.731500000000     0.0559991  
H        H      0.193500000000     0.345000000000     0.750900000000     0.0559991  
H        H      0.823800000000     0.077900000000     0.462500000000     0.0559991  
H        H      0.993400000000     0.157800000000     0.362500000000     0.0559991  
H        H      0.073700000000     0.181800000000     0.451000000000     0.0559991  
H        H      0.595700000000     0.798300000000     0.474000000000     0.0559991  
H        H      0.762000000000     0.802400000000     0.450600000000     0.0559991  
H        H      0.757300000000     0.889700000000     0.459000000000     0.0559991  
H        H      0.746800000000     0.839700000000     0.367900000000     0.0559991  
H        H      0.657200000000     0.790800000000     0.378100000000     0.0559991  
H        H      0.592900000000     0.885900000000     0.345700000000     0.0559991  
H        H      0.491100000000     0.865100000000     0.412000000000     0.0559991  
H        H      0.498700000000     0.952200000000     0.421600000000     0.0559991  
H        H      0.599700000000     0.955300000000     0.493200000000     0.0559991  
H        H      0.508300000000     0.907600000000     0.502300000000     0.0559991  
H        H      0.708400000000     0.662100000000     0.711300000000     0.0559991  
H        H      0.704200000000     0.751400000000     0.817200000000     0.0559991  
H        H      0.612700000000     0.713600000000     0.785500000000     0.0559991  
H        H      0.669600000000     0.595900000000     0.792000000000     0.0559991  
H        H      0.665400000000     0.645000000000     0.850800000000     0.0559991  
H        H      0.811000000000     0.575600000000     0.834100000000     0.0559991  
H        H      0.928500000000     0.612700000000     0.775600000000     0.0559991  
H        H      0.836400000000     0.575200000000     0.744300000000     0.0559991  
H        H      0.873300000000     0.730100000000     0.768500000000     0.0559991  
H        H      0.875700000000     0.680400000000     0.709800000000     0.0559991  
H        H      0.980500000000     0.386200000000     0.845600000000     0.0559991  
H        H      0.113300000000     0.509700000000     0.975600000000     0.0559991  
H        H      0.112400000000     0.577300000000     0.831900000000     0.0559991  
H        H      0.883600000000     0.410200000000     0.776200000000     0.0559991  
H        H      0.012900000000     0.470000000000     0.652300000000     0.0559991  
H        H      0.110700000000     0.519500000000     0.733000000000     0.0559991  
H        H      0.131400000000     0.381900000000     0.996500000000     0.0559991  
H        H      0.910700000000     0.245400000000     0.968200000000     0.0559991  
H        H      0.889100000000     0.336800000000     0.911000000000     0.0559991  
H        H      0.257100000000     0.584300000000     0.991200000000     0.0559991  
H        H      0.273300000000     0.769900000000     0.936400000000     0.0559991  
H        H      0.151400000000     0.692500000000     0.881900000000     0.0559991  
H        H      0.497600000000     0.645200000000     0.682900000000     0.0559991  
H        H      0.458500000000     0.730900000000     0.547900000000     0.0559991  
H        H      0.594900000000     0.534100000000     0.538200000000     0.0559991  
H        H      0.716800000000     0.491200000000     0.595000000000     0.0559991  
H        H      0.622500000000     0.430300000000     0.728100000000     0.0559991  
H        H      0.509500000000     0.523900000000     0.708400000000     0.0559991  
H        H      0.362600000000     0.812800000000     0.595400000000     0.0559991  
H        H      0.421400000000     0.742400000000     0.731500000000     0.0559991  
H        H      0.306500000000     0.845000000000     0.750900000000     0.0559991  
H        H      0.676200000000     0.577900000000     0.462500000000     0.0559991  
H        H      0.506600000000     0.657800000000     0.362500000000     0.0559991  
H        H      0.426300000000     0.681800000000     0.451000000000     0.0559991  
H        H      0.904300000000     0.298300000000     0.474000000000     0.0559991  
H        H      0.738000000000     0.302400000000     0.450600000000     0.0559991  
H        H      0.742700000000     0.389700000000     0.459000000000     0.0559991  
H        H      0.753200000000     0.339700000000     0.367900000000     0.0559991  
H        H      0.842800000000     0.290800000000     0.378100000000     0.0559991  
H        H      0.907100000000     0.385900000000     0.345700000000     0.0559991  
H        H      0.008900000000     0.365100000000     0.412000000000     0.0559991  
H        H      0.001300000000     0.452200000000     0.421600000000     0.0559991  
H        H      0.900300000000     0.455300000000     0.493200000000     0.0559991  
H        H      0.991700000000     0.407600000000     0.502300000000     0.0559991  
H        H      0.791600000000     0.162100000000     0.711300000000     0.0559991  
H        H      0.795800000000     0.251400000000     0.817200000000     0.0559991  
H        H      0.887300000000     0.213600000000     0.785500000000     0.0559991  
H        H      0.830400000000     0.095900000000     0.792000000000     0.0559991  
H        H      0.834600000000     0.145000000000     0.850800000000     0.0559991  
H        H      0.689000000000     0.075600000000     0.834100000000     0.0559991  
H        H      0.571500000000     0.112700000000     0.775600000000     0.0559991  
H        H      0.663600000000     0.075200000000     0.744300000000     0.0559991  
H        H      0.626700000000     0.230100000000     0.768500000000     0.0559991  
H        H      0.624300000000     0.180400000000     0.709800000000     0.0559991  
H        H      0.480500000000     0.113800000000     0.154400000000     0.0559991  
H        H      0.613300000000     0.990300000000     0.024400000000     0.0559991  
H        H      0.612400000000     0.922700000000     0.168100000000     0.0559991  
H        H      0.383600000000     0.089800000000     0.223800000000     0.0559991  
H        H      0.512900000000     0.030000000000     0.347700000000     0.0559991  
H        H      0.610700000000     0.980500000000     0.267000000000     0.0559991  
H        H      0.631400000000     0.118100000000     0.003500000000     0.0559991  
H        H      0.410700000000     0.254600000000     0.031800000000     0.0559991  
H        H      0.389100000000     0.163200000000     0.089000000000     0.0559991  
H        H      0.757100000000     0.915700000000     0.008800000000     0.0559991  
H        H      0.773300000000     0.730100000000     0.063600000000     0.0559991  
H        H      0.651400000000     0.807500000000     0.118100000000     0.0559991  
H        H      0.997600000000     0.854800000000     0.317100000000     0.0559991  
H        H      0.958500000000     0.769100000000     0.452100000000     0.0559991  
H        H      0.094900000000     0.965900000000     0.461800000000     0.0559991  
H        H      0.216800000000     0.008800000000     0.405000000000     0.0559991  
H        H      0.122500000000     0.069700000000     0.271900000000     0.0559991  
H        H      0.009500000000     0.976100000000     0.291600000000     0.0559991  
H        H      0.862600000000     0.687200000000     0.404600000000     0.0559991  
H        H      0.921400000000     0.757600000000     0.268500000000     0.0559991  
H        H      0.806500000000     0.655000000000     0.249100000000     0.0559991  
H        H      0.176200000000     0.922100000000     0.537500000000     0.0559991  
H        H      0.006600000000     0.842200000000     0.637500000000     0.0559991  
H        H      0.926300000000     0.818200000000     0.549000000000     0.0559991  
H        H      0.404300000000     0.201700000000     0.526000000000     0.0559991  
H        H      0.238000000000     0.197600000000     0.549400000000     0.0559991  
H        H      0.242700000000     0.110300000000     0.541000000000     0.0559991  
H        H      0.253200000000     0.160300000000     0.632100000000     0.0559991  
H        H      0.342800000000     0.209200000000     0.621900000000     0.0559991  
H        H      0.407100000000     0.114100000000     0.654300000000     0.0559991  
H        H      0.508900000000     0.134900000000     0.588000000000     0.0559991  
H        H      0.501300000000     0.047800000000     0.578400000000     0.0559991  
H        H      0.400300000000     0.044700000000     0.506800000000     0.0559991  
H        H      0.491700000000     0.092400000000     0.497700000000     0.0559991  
H        H      0.291600000000     0.337900000000     0.288700000000     0.0559991  
H        H      0.295800000000     0.248600000000     0.182800000000     0.0559991  
H        H      0.387300000000     0.286400000000     0.214500000000     0.0559991  
H        H      0.330400000000     0.404100000000     0.208000000000     0.0559991  
H        H      0.334600000000     0.355000000000     0.149200000000     0.0559991  
H        H      0.189000000000     0.424400000000     0.165900000000     0.0559991  
H        H      0.071500000000     0.387300000000     0.224400000000     0.0559991  
H        H      0.163600000000     0.424800000000     0.255700000000     0.0559991  
H        H      0.126700000000     0.269900000000     0.231500000000     0.0559991  
H        H      0.124300000000     0.319600000000     0.290200000000     0.0559991  
C        C      0.961000000000     0.519300000000     0.169580000000     0.0162056  
C        C      0.984800000000     0.571200000000     0.138860000000     0.0162056  
C        C      0.957300000000     0.560300000000     0.085110000000     0.0162056  
C        C      0.903900000000     0.498200000000     0.061110000000     0.0162056  
C        C      0.877100000000     0.448700000000     0.093530000000     0.0162056  
C        C      0.905400000000     0.457500000000     0.147180000000     0.0162056  
C        C      0.072200000000     0.568900000000     0.244880000000     0.0162056  
C        C      0.001100000000     0.535800000000     0.312360000000     0.0162056  
C        C      0.946400000000     0.508400000000     0.268050000000     0.0162056  
C        C      0.926400000000     0.640800000000     0.017490000000     0.0162056  
C        C      0.047100000000     0.715100000000     0.033300000000     0.0162056  
C        C      0.059600000000     0.665000000000     0.064800000000     0.0162056  
C        C      0.753000000000     0.379000000000     0.029320000000     0.0162056  
C        C      0.745000000000     0.277700000000     0.059500000000     0.0162056  
C        C      0.812400000000     0.320200000000     0.089800000000     0.0162056  
C        C      0.443700000000     0.417900000000     0.385550000000     0.0162056  
C        C      0.494000000000     0.357800000000     0.354410000000     0.0162056  
C        C      0.530800000000     0.303300000000     0.379670000000     0.0162056  
C        C      0.517700000000     0.306600000000     0.435180000000     0.0162056  
C        C      0.468200000000     0.367100000000     0.464760000000     0.0162056  
C        C      0.434200000000     0.424000000000     0.440790000000     0.0162056  
C        C      0.320600000000     0.512700000000     0.374610000000     0.0162056  
C        C      0.373100000000     0.545700000000     0.301400000000     0.0162056  
C        C      0.435700000000     0.494000000000     0.311950000000     0.0162056  
C        C      0.637900000000     0.192200000000     0.368200000000     0.0162056  
C        C      0.604500000000     0.231300000000     0.293580000000     0.0162056  
C        C      0.668100000000     0.174900000000     0.283400000000     0.0162056  
C        C      0.376200000000     0.399400000000     0.551510000000     0.0162056  
C        C      0.469300000000     0.355400000000     0.605890000000     0.0162056  
C        C      0.514000000000     0.342100000000     0.557220000000     0.0162056  
C        C      0.132100000000     0.655300000000     0.513720000000     0.0162056  
C        C      0.219900000000     0.655800000000     0.552200000000     0.0162056  
C        C      0.189200000000     0.661600000000     0.609700000000     0.0162056  
C        C      0.120800000000     0.599800000000     0.617700000000     0.0162056  
C        C      0.034900000000     0.593000000000     0.576900000000     0.0162056  
C        C      0.065900000000     0.591300000000     0.520100000000     0.0162056  
C        C      0.166000000000     0.654700000000     0.455300000000     0.0162056  
C        C      0.177000000000     0.525700000000     0.616000000000     0.0162056  
C        C      0.236100000000     0.796800000000     0.261990000000     0.0162056  
C        C      0.182000000000     0.792200000000     0.208500000000     0.0162056  
C        C      0.198200000000     0.861200000000     0.184200000000     0.0162056  
C        C      0.305600000000     0.875700000000     0.176600000000     0.0162056  
C        C      0.359200000000     0.881100000000     0.230300000000     0.0162056  
C        C      0.343600000000     0.812600000000     0.254900000000     0.0162056  
C        C      0.226600000000     0.725900000000     0.284000000000     0.0162056  
C        C      0.354700000000     0.817200000000     0.130600000000     0.0162056  
C        C      0.461000000000     0.980700000000     0.830420000000     0.0162056  
C        C      0.484800000000     0.928800000000     0.861140000000     0.0162056  
C        C      0.457300000000     0.939700000000     0.914890000000     0.0162056  
C        C      0.403900000000     0.001800000000     0.938890000000     0.0162056  
C        C      0.377100000000     0.051300000000     0.906470000000     0.0162056  
C        C      0.405400000000     0.042500000000     0.852820000000     0.0162056  
C        C      0.572200000000     0.931100000000     0.755120000000     0.0162056  
C        C      0.501100000000     0.964200000000     0.687640000000     0.0162056  
C        C      0.446400000000     0.991600000000     0.731950000000     0.0162056  
C        C      0.426400000000     0.859200000000     0.982510000000     0.0162056  
C        C      0.547100000000     0.784900000000     0.966700000000     0.0162056  
C        C      0.559600000000     0.835000000000     0.935200000000     0.0162056  
C        C      0.253000000000     0.121000000000     0.970680000000     0.0162056  
C        C      0.245000000000     0.222300000000     0.940500000000     0.0162056  
C        C      0.312400000000     0.179800000000     0.910200000000     0.0162056  
C        C      0.943700000000     0.082100000000     0.614450000000     0.0162056  
C        C      0.994000000000     0.142200000000     0.645590000000     0.0162056  
C        C      0.030800000000     0.196700000000     0.620330000000     0.0162056  
C        C      0.017700000000     0.193400000000     0.564820000000     0.0162056  
C        C      0.968200000000     0.132900000000     0.535240000000     0.0162056  
C        C      0.934200000000     0.076000000000     0.559210000000     0.0162056  
C        C      0.820600000000     0.987300000000     0.625390000000     0.0162056  
C        C      0.873100000000     0.954300000000     0.698600000000     0.0162056  
C        C      0.935700000000     0.006000000000     0.688050000000     0.0162056  
C        C      0.137900000000     0.307800000000     0.631800000000     0.0162056  
C        C      0.104500000000     0.268700000000     0.706420000000     0.0162056  
C        C      0.168100000000     0.325100000000     0.716600000000     0.0162056  
C        C      0.876200000000     0.100600000000     0.448490000000     0.0162056  
C        C      0.969300000000     0.144600000000     0.394110000000     0.0162056  
C        C      0.014000000000     0.157900000000     0.442780000000     0.0162056  
C        C      0.632100000000     0.844700000000     0.486280000000     0.0162056  
C        C      0.719900000000     0.844200000000     0.447800000000     0.0162056  
C        C      0.689200000000     0.838400000000     0.390300000000     0.0162056  
C        C      0.620800000000     0.900200000000     0.382300000000     0.0162056  
C        C      0.534900000000     0.907000000000     0.423100000000     0.0162056  
C        C      0.565900000000     0.908700000000     0.479900000000     0.0162056  
C        C      0.666000000000     0.845300000000     0.544700000000     0.0162056  
C        C      0.677000000000     0.974300000000     0.384000000000     0.0162056  
C        C      0.736100000000     0.703200000000     0.738010000000     0.0162056  
C        C      0.682000000000     0.707800000000     0.791500000000     0.0162056  
C        C      0.698200000000     0.638800000000     0.815800000000     0.0162056  
C        C      0.805600000000     0.624300000000     0.823400000000     0.0162056  
C        C      0.859200000000     0.618900000000     0.769700000000     0.0162056  
C        C      0.843600000000     0.687400000000     0.745100000000     0.0162056  
C        C      0.726600000000     0.774100000000     0.716000000000     0.0162056  
C        C      0.854700000000     0.682800000000     0.869400000000     0.0162056  
C        C      0.039000000000     0.480700000000     0.830420000000     0.0162056  
C        C      0.015200000000     0.428800000000     0.861140000000     0.0162056  
C        C      0.042700000000     0.439700000000     0.914890000000     0.0162056  
C        C      0.096100000000     0.501800000000     0.938890000000     0.0162056  
C        C      0.122900000000     0.551300000000     0.906470000000     0.0162056  
C        C      0.094600000000     0.542500000000     0.852820000000     0.0162056  
C        C      0.927800000000     0.431100000000     0.755120000000     0.0162056  
C        C      0.998900000000     0.464200000000     0.687640000000     0.0162056  
C        C      0.053600000000     0.491600000000     0.731950000000     0.0162056  
C        C      0.073600000000     0.359200000000     0.982510000000     0.0162056  
C        C      0.952900000000     0.284900000000     0.966700000000     0.0162056  
C        C      0.940400000000     0.335000000000     0.935200000000     0.0162056  
C        C      0.247000000000     0.621000000000     0.970680000000     0.0162056  
C        C      0.255000000000     0.722300000000     0.940500000000     0.0162056  
C        C      0.187600000000     0.679800000000     0.910200000000     0.0162056  
C        C      0.556300000000     0.582100000000     0.614450000000     0.0162056  
C        C      0.506000000000     0.642200000000     0.645590000000     0.0162056  
C        C      0.469200000000     0.696700000000     0.620330000000     0.0162056  
C        C      0.482300000000     0.693400000000     0.564820000000     0.0162056  
C        C      0.531800000000     0.632900000000     0.535240000000     0.0162056  
C        C      0.565800000000     0.576000000000     0.559210000000     0.0162056  
C        C      0.679400000000     0.487300000000     0.625390000000     0.0162056  
C        C      0.626900000000     0.454300000000     0.698600000000     0.0162056  
C        C      0.564300000000     0.506000000000     0.688050000000     0.0162056  
C        C      0.362100000000     0.807800000000     0.631800000000     0.0162056  
C        C      0.395500000000     0.768700000000     0.706420000000     0.0162056  
C        C      0.331900000000     0.825100000000     0.716600000000     0.0162056  
C        C      0.623800000000     0.600600000000     0.448490000000     0.0162056  
C        C      0.530700000000     0.644600000000     0.394110000000     0.0162056  
C        C      0.486000000000     0.657900000000     0.442780000000     0.0162056  
C        C      0.867900000000     0.344700000000     0.486280000000     0.0162056  
C        C      0.780100000000     0.344200000000     0.447800000000     0.0162056  
C        C      0.810800000000     0.338400000000     0.390300000000     0.0162056  
C        C      0.879200000000     0.400200000000     0.382300000000     0.0162056  
C        C      0.965100000000     0.407000000000     0.423100000000     0.0162056  
C        C      0.934100000000     0.408700000000     0.479900000000     0.0162056  
C        C      0.834000000000     0.345300000000     0.544700000000     0.0162056  
C        C      0.823000000000     0.474300000000     0.384000000000     0.0162056  
C        C      0.763900000000     0.203200000000     0.738010000000     0.0162056  
C        C      0.818000000000     0.207800000000     0.791500000000     0.0162056  
C        C      0.801800000000     0.138800000000     0.815800000000     0.0162056  
C        C      0.694400000000     0.124300000000     0.823400000000     0.0162056  
C        C      0.640800000000     0.118900000000     0.769700000000     0.0162056  
C        C      0.656400000000     0.187400000000     0.745100000000     0.0162056  
C        C      0.773400000000     0.274100000000     0.716000000000     0.0162056  
C        C      0.645300000000     0.182800000000     0.869400000000     0.0162056  
C        C      0.539000000000     0.019300000000     0.169580000000     0.0162056  
C        C      0.515200000000     0.071200000000     0.138860000000     0.0162056  
C        C      0.542700000000     0.060300000000     0.085110000000     0.0162056  
C        C      0.596100000000     0.998200000000     0.061110000000     0.0162056  
C        C      0.622900000000     0.948700000000     0.093530000000     0.0162056  
C        C      0.594600000000     0.957500000000     0.147180000000     0.0162056  
C        C      0.427800000000     0.068900000000     0.244880000000     0.0162056  
C        C      0.498900000000     0.035800000000     0.312360000000     0.0162056  
C        C      0.553600000000     0.008400000000     0.268050000000     0.0162056  
C        C      0.573600000000     0.140800000000     0.017490000000     0.0162056  
C        C      0.452900000000     0.215100000000     0.033300000000     0.0162056  
C        C      0.440400000000     0.165000000000     0.064800000000     0.0162056  
C        C      0.747000000000     0.879000000000     0.029320000000     0.0162056  
C        C      0.755000000000     0.777700000000     0.059500000000     0.0162056  
C        C      0.687600000000     0.820200000000     0.089800000000     0.0162056  
C        C      0.056300000000     0.917900000000     0.385550000000     0.0162056  
C        C      0.006000000000     0.857800000000     0.354410000000     0.0162056  
C        C      0.969200000000     0.803300000000     0.379670000000     0.0162056  
C        C      0.982300000000     0.806600000000     0.435180000000     0.0162056  
C        C      0.031800000000     0.867100000000     0.464760000000     0.0162056  
C        C      0.065800000000     0.924000000000     0.440790000000     0.0162056  
C        C      0.179400000000     0.012700000000     0.374610000000     0.0162056  
C        C      0.126900000000     0.045700000000     0.301400000000     0.0162056  
C        C      0.064300000000     0.994000000000     0.311950000000     0.0162056  
C        C      0.862100000000     0.692200000000     0.368200000000     0.0162056  
C        C      0.895500000000     0.731300000000     0.293580000000     0.0162056  
C        C      0.831900000000     0.674900000000     0.283400000000     0.0162056  
C        C      0.123800000000     0.899400000000     0.551510000000     0.0162056  
C        C      0.030700000000     0.855400000000     0.605890000000     0.0162056  
C        C      0.986000000000     0.842100000000     0.557220000000     0.0162056  
C        C      0.367900000000     0.155300000000     0.513720000000     0.0162056  
C        C      0.280100000000     0.155800000000     0.552200000000     0.0162056  
C        C      0.310800000000     0.161600000000     0.609700000000     0.0162056  
C        C      0.379200000000     0.099800000000     0.617700000000     0.0162056  
C        C      0.465100000000     0.093000000000     0.576900000000     0.0162056  
C        C      0.434100000000     0.091300000000     0.520100000000     0.0162056  
C        C      0.334000000000     0.154700000000     0.455300000000     0.0162056  
C        C      0.323000000000     0.025700000000     0.616000000000     0.0162056  
C        C      0.263900000000     0.296800000000     0.261990000000     0.0162056  
C        C      0.318000000000     0.292200000000     0.208500000000     0.0162056  
C        C      0.301800000000     0.361200000000     0.184200000000     0.0162056  
C        C      0.194400000000     0.375700000000     0.176600000000     0.0162056  
C        C      0.140800000000     0.381100000000     0.230300000000     0.0162056  
C        C      0.156400000000     0.312600000000     0.254900000000     0.0162056  
C        C      0.273400000000     0.225900000000     0.284000000000     0.0162056  
C        C      0.145300000000     0.317200000000     0.130600000000     0.0162056  
N        N      0.080200000000     0.573500000000     0.297700000000    -0.165269   
N        N      0.992400000000     0.530300000000     0.224950000000    -0.165269   
N        N      0.963000000000     0.700200000000     0.003120000000    -0.165269   
N        N      0.981800000000     0.616300000000     0.054920000000    -0.165269   
N        N      0.706800000000     0.315800000000     0.021130000000    -0.165269   
N        N      0.817700000000     0.385300000000     0.071130000000    -0.165269   
N        N      0.301200000000     0.558000000000     0.340620000000    -0.165269   
N        N      0.403300000000     0.472200000000     0.358850000000    -0.165269   
N        N      0.690300000000     0.150500000000     0.330250000000    -0.165269   
N        N      0.584800000000     0.242900000000     0.348550000000    -0.165269   
N        N      0.383100000000     0.391500000000     0.601890000000    -0.165269   
N        N      0.454600000000     0.370500000000     0.521940000000    -0.165269   
N        N      0.580200000000     0.926500000000     0.702300000000    -0.165269   
N        N      0.492400000000     0.969700000000     0.775050000000    -0.165269   
N        N      0.463000000000     0.799800000000     0.996880000000    -0.165269   
N        N      0.481800000000     0.883700000000     0.945080000000    -0.165269   
N        N      0.206800000000     0.184200000000     0.978870000000    -0.165269   
N        N      0.317700000000     0.114700000000     0.928870000000    -0.165269   
N        N      0.801200000000     0.942000000000     0.659380000000    -0.165269   
N        N      0.903300000000     0.027800000000     0.641150000000    -0.165269   
N        N      0.190300000000     0.349500000000     0.669750000000    -0.165269   
N        N      0.084800000000     0.257100000000     0.651450000000    -0.165269   
N        N      0.883100000000     0.108500000000     0.398110000000    -0.165269   
N        N      0.954600000000     0.129500000000     0.478060000000    -0.165269   
N        N      0.919800000000     0.426500000000     0.702300000000    -0.165269   
N        N      0.007600000000     0.469700000000     0.775050000000    -0.165269   
N        N      0.037000000000     0.299800000000     0.996880000000    -0.165269   
N        N      0.018200000000     0.383700000000     0.945080000000    -0.165269   
N        N      0.293200000000     0.684200000000     0.978870000000    -0.165269   
N        N      0.182300000000     0.614700000000     0.928870000000    -0.165269   
N        N      0.698800000000     0.442000000000     0.659380000000    -0.165269   
N        N      0.596700000000     0.527800000000     0.641150000000    -0.165269   
N        N      0.309700000000     0.849500000000     0.669750000000    -0.165269   
N        N      0.415200000000     0.757100000000     0.651450000000    -0.165269   
N        N      0.616900000000     0.608500000000     0.398110000000    -0.165269   
N        N      0.545400000000     0.629500000000     0.478060000000    -0.165269   
N        N      0.419800000000     0.073500000000     0.297700000000    -0.165269   
N        N      0.507600000000     0.030300000000     0.224950000000    -0.165269   
N        N      0.537000000000     0.200200000000     0.003120000000    -0.165269   
N        N      0.518200000000     0.116300000000     0.054920000000    -0.165269   
N        N      0.793200000000     0.815800000000     0.021130000000    -0.165269   
N        N      0.682300000000     0.885300000000     0.071130000000    -0.165269   
N        N      0.198800000000     0.058000000000     0.340620000000    -0.165269   
N        N      0.096700000000     0.972200000000     0.358850000000    -0.165269   
N        N      0.809700000000     0.650500000000     0.330250000000    -0.165269   
N        N      0.915200000000     0.742900000000     0.348550000000    -0.165269   
N        N      0.116900000000     0.891500000000     0.601890000000    -0.165269   
N        N      0.045400000000     0.870500000000     0.521940000000    -0.165269   
O        O      0.122400000000     0.624900000000     0.418090000000    -0.292827   
O        O      0.246000000000     0.685900000000     0.448230000000    -0.292827   
O        O      0.234700000000     0.527300000000     0.654600000000    -0.292827   
O        O      0.163200000000     0.469900000000     0.580100000000    -0.292827   
O        O      0.195500000000     0.729120000000     0.331910000000    -0.292827   
O        O      0.249600000000     0.665100000000     0.254910000000    -0.292827   
O        O      0.442600000000     0.798500000000     0.135750000000    -0.292827   
O        O      0.306300000000     0.793900000000     0.089950000000    -0.292827   
O        O      0.622400000000     0.875100000000     0.581910000000    -0.292827   
O        O      0.746000000000     0.814100000000     0.551770000000    -0.292827   
O        O      0.734700000000     0.972700000000     0.345400000000    -0.292827   
O        O      0.663200000000     0.030100000000     0.419900000000    -0.292827   
O        O      0.695500000000     0.770880000000     0.668090000000    -0.292827   
O        O      0.749600000000     0.834900000000     0.745090000000    -0.292827   
O        O      0.942600000000     0.701500000000     0.864250000000    -0.292827   
O        O      0.806300000000     0.706100000000     0.910050000000    -0.292827   
O        O      0.877600000000     0.375100000000     0.581910000000    -0.292827   
O        O      0.754000000000     0.314100000000     0.551770000000    -0.292827   
O        O      0.765300000000     0.472700000000     0.345400000000    -0.292827   
O        O      0.836800000000     0.530100000000     0.419900000000    -0.292827   
O        O      0.804500000000     0.270880000000     0.668090000000    -0.292827   
O        O      0.750400000000     0.334900000000     0.745090000000    -0.292827   
O        O      0.557400000000     0.201500000000     0.864250000000    -0.292827   
O        O      0.693700000000     0.206100000000     0.910050000000    -0.292827   
O        O      0.377600000000     0.124900000000     0.418090000000    -0.292827   
O        O      0.254000000000     0.185900000000     0.448230000000    -0.292827   
O        O      0.265300000000     0.027300000000     0.654600000000    -0.292827   
O        O      0.336800000000     0.969900000000     0.580100000000    -0.292827   
O        O      0.304500000000     0.229120000000     0.331910000000    -0.292827   
O        O      0.250400000000     0.165100000000     0.254910000000    -0.292827   
O        O      0.057400000000     0.298500000000     0.135750000000    -0.292827   
O        O      0.193700000000     0.293900000000     0.089950000000    -0.292827   


