data_KEXPOU_original

_audit_creation_method RASPA-1.0
_audit_creation_date 2022-1-31
_audit_author_name 'Felipe Lopes de Oliveira <felipe.lopes.oliveira@ibm.com>'

_cell_length_a    7.249
_cell_length_b    7.419
_cell_length_c    23.93
_cell_angle_alpha 90
_cell_angle_beta  90
_cell_angle_gamma 90.37
_cell_volume      1286.94

_symmetry_cell_setting          triclinic
_symmetry_space_group_name_Hall 'P 1'
_symmetry_space_group_name_H-M  'P 1'
_symmetry_Int_Tables_number     1

_symmetry_equiv_pos_as_xyz 'x,y,z'

loop_
_atom_site_label
_atom_site_type_symbol
_atom_site_fract_x
_atom_site_fract_y
_atom_site_fract_z
_atom_site_charge
Zn       Zn     0.428560000000     0.422950000000     0.781960000000     0.463392   
Zn       Zn     0.071440000000     0.077050000000     0.281960000000     0.463392   
Zn       Zn     0.571440000000     0.577050000000     0.218040000000     0.463392   
Zn       Zn     0.928560000000     0.922950000000     0.718040000000     0.463392   
H        H      0.427100000000     0.502900000000     0.649000000000     0.0959816  
H        H      0.429800000000     0.706700000000     0.626800000000     0.0959816  
H        H      0.380100000000     0.608900000000     0.984900000000     0.0959816  
H        H      0.392300000000     0.419500000000     0.908600000000     0.0959816  
H        H      0.451700000000     0.830900000000     0.806500000000     0.0959816  
H        H      0.441600000000     0.032900000000     0.879900000000     0.0959816  
H        H      0.335300000000     0.081200000000     0.979700000000     0.0959816  
H        H      0.339000000000     0.913800000000     0.021800000000     0.0959816  
H        H      0.072900000000     0.997100000000     0.149000000000     0.0959816  
H        H      0.070200000000     0.793300000000     0.126800000000     0.0959816  
H        H      0.119900000000     0.891100000000     0.484900000000     0.0959816  
H        H      0.107700000000     0.080500000000     0.408600000000     0.0959816  
H        H      0.048300000000     0.669100000000     0.306500000000     0.0959816  
H        H      0.058400000000     0.467100000000     0.379900000000     0.0959816  
H        H      0.164700000000     0.418800000000     0.479700000000     0.0959816  
H        H      0.161000000000     0.586200000000     0.521800000000     0.0959816  
H        H      0.572900000000     0.497100000000     0.351000000000     0.0959816  
H        H      0.570200000000     0.293300000000     0.373200000000     0.0959816  
H        H      0.619900000000     0.391100000000     0.015100000000     0.0959816  
H        H      0.607700000000     0.580500000000     0.091400000000     0.0959816  
H        H      0.548300000000     0.169100000000     0.193500000000     0.0959816  
H        H      0.558400000000     0.967100000000     0.120100000000     0.0959816  
H        H      0.664700000000     0.918800000000     0.020300000000     0.0959816  
H        H      0.661000000000     0.086200000000     0.978200000000     0.0959816  
H        H      0.927100000000     0.002900000000     0.851000000000     0.0959816  
H        H      0.929800000000     0.206700000000     0.873200000000     0.0959816  
H        H      0.880100000000     0.108900000000     0.515100000000     0.0959816  
H        H      0.892300000000     0.919500000000     0.591400000000     0.0959816  
H        H      0.951700000000     0.330900000000     0.693500000000     0.0959816  
H        H      0.941600000000     0.532900000000     0.620100000000     0.0959816  
H        H      0.835300000000     0.581200000000     0.520300000000     0.0959816  
H        H      0.839000000000     0.413800000000     0.478200000000     0.0959816  
C        C      0.601500000000     0.668600000000     0.695110000000     0.020515   
C        C      0.428400000000     0.630800000000     0.660810000000     0.020515   
C        C      0.254800000000     0.670200000000     0.694640000000     0.020515   
C        C      0.395400000000     0.658300000000     0.948500000000     0.020515   
C        C      0.402800000000     0.545800000000     0.902710000000     0.020515   
C        C      0.437400000000     0.785400000000     0.843330000000     0.020515   
C        C      0.431400000000     0.907200000000     0.887000000000     0.020515   
C        C      0.410200000000     0.844400000000     0.941530000000     0.020515   
C        C      0.405100000000     0.972300000000     0.990420000000     0.020515   
C        C      0.898500000000     0.831400000000     0.195110000000     0.020515   
C        C      0.071600000000     0.869200000000     0.160810000000     0.020515   
C        C      0.245200000000     0.829800000000     0.194640000000     0.020515   
C        C      0.104600000000     0.841700000000     0.448500000000     0.020515   
C        C      0.097200000000     0.954200000000     0.402710000000     0.020515   
C        C      0.062600000000     0.714600000000     0.343330000000     0.020515   
C        C      0.068600000000     0.592800000000     0.387000000000     0.020515   
C        C      0.089800000000     0.655600000000     0.441530000000     0.020515   
C        C      0.094900000000     0.527700000000     0.490420000000     0.020515   
C        C      0.398500000000     0.331400000000     0.304890000000     0.020515   
C        C      0.571600000000     0.369200000000     0.339190000000     0.020515   
C        C      0.745200000000     0.329800000000     0.305360000000     0.020515   
C        C      0.604600000000     0.341700000000     0.051500000000     0.020515   
C        C      0.597200000000     0.454200000000     0.097290000000     0.020515   
C        C      0.562600000000     0.214600000000     0.156670000000     0.020515   
C        C      0.568600000000     0.092800000000     0.113000000000     0.020515   
C        C      0.589800000000     0.155600000000     0.058470000000     0.020515   
C        C      0.594900000000     0.027700000000     0.009580000000     0.020515   
C        C      0.101500000000     0.168600000000     0.804890000000     0.020515   
C        C      0.928400000000     0.130800000000     0.839190000000     0.020515   
C        C      0.754800000000     0.170200000000     0.805360000000     0.020515   
C        C      0.895400000000     0.158300000000     0.551500000000     0.020515   
C        C      0.902800000000     0.045800000000     0.597290000000     0.020515   
C        C      0.937400000000     0.285400000000     0.656670000000     0.020515   
C        C      0.931400000000     0.407200000000     0.613000000000     0.020515   
C        C      0.910200000000     0.344400000000     0.558470000000     0.020515   
C        C      0.905100000000     0.472300000000     0.509580000000     0.020515   
N        N      0.424000000000     0.606200000000     0.850300000000    -0.151498   
N        N      0.076000000000     0.893800000000     0.350300000000    -0.151498   
N        N      0.576000000000     0.393800000000     0.149700000000    -0.151498   
N        N      0.924000000000     0.106200000000     0.649700000000    -0.151498   
O        O      0.625500000000     0.582000000000     0.739800000000    -0.316096   
O        O      0.712300000000     0.785800000000     0.676740000000    -0.316096   
O        O      0.230400000000     0.582900000000     0.739750000000    -0.316096   
O        O      0.145900000000     0.786000000000     0.675930000000    -0.316096   
O        O      0.874500000000     0.918000000000     0.239800000000    -0.316096   
O        O      0.787700000000     0.714200000000     0.176740000000    -0.316096   
O        O      0.269600000000     0.917100000000     0.239750000000    -0.316096   
O        O      0.354100000000     0.714000000000     0.175930000000    -0.316096   
O        O      0.374500000000     0.418000000000     0.260200000000    -0.316096   
O        O      0.287700000000     0.214200000000     0.323260000000    -0.316096   
O        O      0.769600000000     0.417100000000     0.260250000000    -0.316096   
O        O      0.854100000000     0.214000000000     0.324070000000    -0.316096   
O        O      0.125500000000     0.082000000000     0.760200000000    -0.316096   
O        O      0.212300000000     0.285800000000     0.823260000000    -0.316096   
O        O      0.730400000000     0.082900000000     0.760250000000    -0.316096   
O        O      0.645900000000     0.286000000000     0.824070000000    -0.316096   


