data_KIGCEK_original

_audit_creation_method RASPA-1.0
_audit_creation_date 2022-1-30
_audit_author_name 'Felipe Lopes de Oliveira <felipe.lopes.oliveira@ibm.com>'

_cell_length_a    10.435
_cell_length_b    17.4807
_cell_length_c    17.4807
_cell_angle_alpha 120
_cell_angle_beta  90
_cell_angle_gamma 90
_cell_volume      2761.47

_symmetry_cell_setting          triclinic
_symmetry_space_group_name_Hall 'P 1'
_symmetry_space_group_name_H-M  'P 1'
_symmetry_Int_Tables_number     1

_symmetry_equiv_pos_as_xyz 'x,y,z'

loop_
_atom_site_label
_atom_site_type_symbol
_atom_site_fract_x
_atom_site_fract_y
_atom_site_fract_z
_atom_site_charge
Zn       Zn     0.912010000000     0.535190000000     0.071260000000     0.346442   
Zn       Zn     0.578680000000     0.536070000000     0.464810000000     0.346442   
Zn       Zn     0.245340000000     0.928740000000     0.463930000000     0.346442   
Zn       Zn     0.412010000000     0.464810000000     0.928740000000     0.346442   
Zn       Zn     0.078680000000     0.463930000000     0.535190000000     0.346442   
Zn       Zn     0.745340000000     0.071260000000     0.536070000000     0.346442   
H        H      0.925800000000     0.347500000000     0.926400000000     0.139002   
H        H      0.009000000000     0.470000000000     0.919300000000     0.139002   
H        H      0.203700000000     0.469500000000     0.692400000000     0.139002   
H        H      0.166400000000     0.516800000000     0.838600000000     0.139002   
H        H      0.824600000000     0.607500000000     0.816300000000     0.139002   
H        H      0.873000000000     0.561000000000     0.671000000000     0.139002   
H        H      0.028700000000     0.620700000000     0.975800000000     0.139002   
H        H      0.882100000000     0.623700000000     0.957200000000     0.139002   
H        H      0.808900000000     0.473600000000     0.845300000000     0.139002   
H        H      0.781900000000     0.317500000000     0.821000000000     0.139002   
H        H      0.901000000000     0.369200000000     0.726600000000     0.139002   
H        H      0.893800000000     0.269300000000     0.700000000000     0.139002   
H        H      0.014400000000     0.325700000000     0.750000000000     0.139002   
H        H      0.592470000000     0.578900000000     0.652500000000     0.139002   
H        H      0.675670000000     0.449300000000     0.530000000000     0.139002   
H        H      0.870370000000     0.222900000000     0.530500000000     0.139002   
H        H      0.833070000000     0.321800000000     0.483200000000     0.139002   
H        H      0.491270000000     0.208800000000     0.392500000000     0.139002   
H        H      0.539670000000     0.110000000000     0.439000000000     0.139002   
H        H      0.695370000000     0.355100000000     0.379300000000     0.139002   
H        H      0.548770000000     0.333500000000     0.376300000000     0.139002   
H        H      0.475570000000     0.371700000000     0.526400000000     0.139002   
H        H      0.448570000000     0.503500000000     0.682500000000     0.139002   
H        H      0.567670000000     0.357400000000     0.630800000000     0.139002   
H        H      0.560470000000     0.430700000000     0.730700000000     0.139002   
H        H      0.681070000000     0.424300000000     0.674300000000     0.139002   
H        H      0.259130000000     0.073600000000     0.421100000000     0.139002   
H        H      0.342330000000     0.080700000000     0.550700000000     0.139002   
H        H      0.537030000000     0.307600000000     0.777100000000     0.139002   
H        H      0.499730000000     0.161400000000     0.678200000000     0.139002   
H        H      0.157930000000     0.183700000000     0.791200000000     0.139002   
H        H      0.206330000000     0.329000000000     0.890000000000     0.139002   
H        H      0.362030000000     0.024200000000     0.644900000000     0.139002   
H        H      0.215430000000     0.042800000000     0.666500000000     0.139002   
H        H      0.142230000000     0.154700000000     0.628300000000     0.139002   
H        H      0.115230000000     0.179000000000     0.496500000000     0.139002   
H        H      0.234330000000     0.273400000000     0.642600000000     0.139002   
H        H      0.227130000000     0.300000000000     0.569300000000     0.139002   
H        H      0.347730000000     0.250000000000     0.575700000000     0.139002   
H        H      0.425800000000     0.652500000000     0.073600000000     0.139002   
H        H      0.509000000000     0.530000000000     0.080700000000     0.139002   
H        H      0.703700000000     0.530500000000     0.307600000000     0.139002   
H        H      0.666400000000     0.483200000000     0.161400000000     0.139002   
H        H      0.324600000000     0.392500000000     0.183700000000     0.139002   
H        H      0.373000000000     0.439000000000     0.329000000000     0.139002   
H        H      0.528700000000     0.379300000000     0.024200000000     0.139002   
H        H      0.382100000000     0.376300000000     0.042800000000     0.139002   
H        H      0.308900000000     0.526400000000     0.154700000000     0.139002   
H        H      0.281900000000     0.682500000000     0.179000000000     0.139002   
H        H      0.401000000000     0.630800000000     0.273400000000     0.139002   
H        H      0.393800000000     0.730700000000     0.300000000000     0.139002   
H        H      0.514400000000     0.674300000000     0.250000000000     0.139002   
H        H      0.092470000000     0.421100000000     0.347500000000     0.139002   
H        H      0.175670000000     0.550700000000     0.470000000000     0.139002   
H        H      0.370370000000     0.777100000000     0.469500000000     0.139002   
H        H      0.333070000000     0.678200000000     0.516800000000     0.139002   
H        H      0.991270000000     0.791200000000     0.607500000000     0.139002   
H        H      0.039670000000     0.890000000000     0.561000000000     0.139002   
H        H      0.195370000000     0.644900000000     0.620700000000     0.139002   
H        H      0.048770000000     0.666500000000     0.623700000000     0.139002   
H        H      0.975570000000     0.628300000000     0.473600000000     0.139002   
H        H      0.948570000000     0.496500000000     0.317500000000     0.139002   
H        H      0.067670000000     0.642600000000     0.369200000000     0.139002   
H        H      0.060470000000     0.569300000000     0.269300000000     0.139002   
H        H      0.181070000000     0.575700000000     0.325700000000     0.139002   
H        H      0.759130000000     0.926400000000     0.578900000000     0.139002   
H        H      0.842330000000     0.919300000000     0.449300000000     0.139002   
H        H      0.037030000000     0.692400000000     0.222900000000     0.139002   
H        H      0.999730000000     0.838600000000     0.321800000000     0.139002   
H        H      0.657930000000     0.816300000000     0.208800000000     0.139002   
H        H      0.706330000000     0.671000000000     0.110000000000     0.139002   
H        H      0.862030000000     0.975800000000     0.355100000000     0.139002   
H        H      0.715430000000     0.957200000000     0.333500000000     0.139002   
H        H      0.642230000000     0.845300000000     0.371700000000     0.139002   
H        H      0.615230000000     0.821000000000     0.503500000000     0.139002   
H        H      0.734330000000     0.726600000000     0.357400000000     0.139002   
H        H      0.727130000000     0.700000000000     0.430700000000     0.139002   
H        H      0.847730000000     0.750000000000     0.424300000000     0.139002   
C        C      0.126400000000     0.497400000000     0.717500000000    -0.0673341  
C        C      0.104300000000     0.525200000000     0.805300000000    -0.0673341  
C        C      0.989200000000     0.565700000000     0.844000000000    -0.0673341  
C        C      0.902200000000     0.579400000000     0.792600000000    -0.0673341  
C        C      0.931800000000     0.550700000000     0.704800000000    -0.0673341  
C        C      0.958600000000     0.587400000000     0.937000000000    -0.0673341  
C        C      0.828100000000     0.452900000000     0.886900000000    -0.0673341  
C        C      0.708900000000     0.468900000000     0.943900000000    -0.0673341  
C        C      0.860300000000     0.352200000000     0.831200000000    -0.0673341  
C        C      0.923100000000     0.326800000000     0.744100000000    -0.0673341  
C        C      0.793070000000     0.220100000000     0.502600000000    -0.0673341  
C        C      0.770970000000     0.280100000000     0.474800000000    -0.0673341  
C        C      0.655870000000     0.278300000000     0.434300000000    -0.0673341  
C        C      0.568870000000     0.213200000000     0.420600000000    -0.0673341  
C        C      0.598470000000     0.154100000000     0.449300000000    -0.0673341  
C        C      0.625270000000     0.349600000000     0.412600000000    -0.0673341  
C        C      0.494770000000     0.434000000000     0.547100000000    -0.0673341  
C        C      0.375570000000     0.475000000000     0.531100000000    -0.0673341  
C        C      0.526970000000     0.479000000000     0.647800000000    -0.0673341  
C        C      0.589770000000     0.417300000000     0.673200000000    -0.0673341  
C        C      0.459730000000     0.282500000000     0.779900000000    -0.0673341  
C        C      0.437630000000     0.194700000000     0.719900000000    -0.0673341  
C        C      0.322530000000     0.156000000000     0.721700000000    -0.0673341  
C        C      0.235530000000     0.207400000000     0.786800000000    -0.0673341  
C        C      0.265130000000     0.295200000000     0.845900000000    -0.0673341  
C        C      0.291930000000     0.063000000000     0.650400000000    -0.0673341  
C        C      0.161430000000     0.113100000000     0.566000000000    -0.0673341  
C        C      0.042230000000     0.056100000000     0.525000000000    -0.0673341  
C        C      0.193630000000     0.168800000000     0.521000000000    -0.0673341  
C        C      0.256430000000     0.255900000000     0.582700000000    -0.0673341  
C        C      0.626400000000     0.502600000000     0.282500000000    -0.0673341  
C        C      0.604300000000     0.474800000000     0.194700000000    -0.0673341  
C        C      0.489200000000     0.434300000000     0.156000000000    -0.0673341  
C        C      0.402200000000     0.420600000000     0.207400000000    -0.0673341  
C        C      0.431800000000     0.449300000000     0.295200000000    -0.0673341  
C        C      0.458600000000     0.412600000000     0.063000000000    -0.0673341  
C        C      0.328100000000     0.547100000000     0.113100000000    -0.0673341  
C        C      0.208900000000     0.531100000000     0.056100000000    -0.0673341  
C        C      0.360300000000     0.647800000000     0.168800000000    -0.0673341  
C        C      0.423100000000     0.673200000000     0.255900000000    -0.0673341  
C        C      0.293070000000     0.779900000000     0.497400000000    -0.0673341  
C        C      0.270970000000     0.719900000000     0.525200000000    -0.0673341  
C        C      0.155870000000     0.721700000000     0.565700000000    -0.0673341  
C        C      0.068870000000     0.786800000000     0.579400000000    -0.0673341  
C        C      0.098470000000     0.845900000000     0.550700000000    -0.0673341  
C        C      0.125270000000     0.650400000000     0.587400000000    -0.0673341  
C        C      0.994770000000     0.566000000000     0.452900000000    -0.0673341  
C        C      0.875570000000     0.525000000000     0.468900000000    -0.0673341  
C        C      0.026970000000     0.521000000000     0.352200000000    -0.0673341  
C        C      0.089770000000     0.582700000000     0.326800000000    -0.0673341  
C        C      0.959730000000     0.717500000000     0.220100000000    -0.0673341  
C        C      0.937630000000     0.805300000000     0.280100000000    -0.0673341  
C        C      0.822530000000     0.844000000000     0.278300000000    -0.0673341  
C        C      0.735530000000     0.792600000000     0.213200000000    -0.0673341  
C        C      0.765130000000     0.704800000000     0.154100000000    -0.0673341  
C        C      0.791930000000     0.937000000000     0.349600000000    -0.0673341  
C        C      0.661430000000     0.886900000000     0.434000000000    -0.0673341  
C        C      0.542230000000     0.943900000000     0.475000000000    -0.0673341  
C        C      0.693630000000     0.831200000000     0.479000000000    -0.0673341  
C        C      0.756430000000     0.744100000000     0.417300000000    -0.0673341  
N        N      0.041000000000     0.508800000000     0.666500000000    -0.151954   
N        N      0.937500000000     0.504000000000     0.940600000000    -0.151954   
N        N      0.707670000000     0.157700000000     0.491200000000    -0.151954   
N        N      0.604170000000     0.436600000000     0.496000000000    -0.151954   
N        N      0.374330000000     0.333500000000     0.842300000000    -0.151954   
N        N      0.270830000000     0.059400000000     0.563400000000    -0.151954   
N        N      0.541000000000     0.491200000000     0.333500000000    -0.151954   
N        N      0.437500000000     0.496000000000     0.059400000000    -0.151954   
N        N      0.207670000000     0.842300000000     0.508800000000    -0.151954   
N        N      0.104170000000     0.563400000000     0.504000000000    -0.151954   
N        N      0.874330000000     0.666500000000     0.157700000000    -0.151954   
N        N      0.770830000000     0.940600000000     0.436600000000    -0.151954   
O        O      0.719100000000     0.509500000000     0.025900000000    -0.392071   
O        O      0.606900000000     0.439500000000     0.901000000000    -0.392071   
O        O      0.949800000000     0.329300000000     0.875400000000    -0.392071   
O        O      0.385770000000     0.516400000000     0.490500000000    -0.392071   
O        O      0.273570000000     0.461500000000     0.560500000000    -0.392071   
O        O      0.616470000000     0.546100000000     0.670700000000    -0.392071   
O        O      0.052430000000     0.974100000000     0.483600000000    -0.392071   
O        O      0.940230000000     0.099000000000     0.538500000000    -0.392071   
O        O      0.283130000000     0.124600000000     0.453900000000    -0.392071   
O        O      0.219100000000     0.490500000000     0.974100000000    -0.392071   
O        O      0.106900000000     0.560500000000     0.099000000000    -0.392071   
O        O      0.449800000000     0.670700000000     0.124600000000    -0.392071   
O        O      0.885770000000     0.483600000000     0.509500000000    -0.392071   
O        O      0.773570000000     0.538500000000     0.439500000000    -0.392071   
O        O      0.116470000000     0.453900000000     0.329300000000    -0.392071   
O        O      0.552430000000     0.025900000000     0.516400000000    -0.392071   
O        O      0.440230000000     0.901000000000     0.461500000000    -0.392071   
O        O      0.783130000000     0.875400000000     0.546100000000    -0.392071   


