data_KINHAS_original

_audit_creation_method RASPA-1.0
_audit_creation_date 2022-1-28
_audit_author_name 'Felipe Lopes de Oliveira <felipe.lopes.oliveira@ibm.com>'

_cell_length_a    6.2776
_cell_length_b    12.9879
_cell_length_c    18.145
_cell_angle_alpha 106.386
_cell_angle_beta  90
_cell_angle_gamma 90
_cell_volume      1419.32

_symmetry_cell_setting          triclinic
_symmetry_space_group_name_Hall 'P 1'
_symmetry_space_group_name_H-M  'P 1'
_symmetry_Int_Tables_number     1

_symmetry_equiv_pos_as_xyz 'x,y,z'

loop_
_atom_site_label
_atom_site_type_symbol
_atom_site_fract_x
_atom_site_fract_y
_atom_site_fract_z
_atom_site_charge
Zn       Zn     0.384060000000     0.750000000000     0.750000000000     0.421129   
Zn       Zn     0.615940000000     0.250000000000     0.250000000000     0.421129   
H        H      0.041500000000     0.933400000000     0.700500000000     0.0567166  
H        H      0.725800000000     0.782100000000     0.507900000000     0.0567166  
H        H      0.213500000000     0.064900000000     0.952300000000     0.0567166  
H        H      0.471500000000     0.736100000000     0.582800000000     0.0567166  
H        H      0.349000000000     0.937800000000     0.010300000000     0.0567166  
H        H      0.146100000000     0.865800000000     0.985500000000     0.0567166  
H        H      0.111200000000     0.963800000000     0.114400000000     0.0567166  
H        H      0.145000000000     0.071800000000     0.093300000000     0.0567166  
H        H      0.034200000000     0.799600000000     0.438800000000     0.0567166  
H        H      0.347300000000     0.874900000000     0.394700000000     0.0567166  
H        H      0.779800000000     0.881800000000     0.769400000000     0.0567166  
H        H      0.041500000000     0.566600000000     0.799500000000     0.0567166  
H        H      0.725800000000     0.717900000000     0.992100000000     0.0567166  
H        H      0.213500000000     0.435100000000     0.547700000000     0.0567166  
H        H      0.471500000000     0.763900000000     0.917200000000     0.0567166  
H        H      0.349000000000     0.562200000000     0.489700000000     0.0567166  
H        H      0.146100000000     0.634200000000     0.514500000000     0.0567166  
H        H      0.111200000000     0.536200000000     0.385600000000     0.0567166  
H        H      0.145000000000     0.428200000000     0.406700000000     0.0567166  
H        H      0.034200000000     0.700400000000     0.061200000000     0.0567166  
H        H      0.347300000000     0.625100000000     0.105300000000     0.0567166  
H        H      0.779800000000     0.618200000000     0.730600000000     0.0567166  
H        H      0.958500000000     0.066600000000     0.299500000000     0.0567166  
H        H      0.274200000000     0.217900000000     0.492100000000     0.0567166  
H        H      0.786500000000     0.935100000000     0.047700000000     0.0567166  
H        H      0.528500000000     0.263900000000     0.417200000000     0.0567166  
H        H      0.651000000000     0.062200000000     0.989700000000     0.0567166  
H        H      0.853900000000     0.134200000000     0.014500000000     0.0567166  
H        H      0.888800000000     0.036200000000     0.885600000000     0.0567166  
H        H      0.855000000000     0.928200000000     0.906700000000     0.0567166  
H        H      0.965800000000     0.200400000000     0.561200000000     0.0567166  
H        H      0.652700000000     0.125100000000     0.605300000000     0.0567166  
H        H      0.220200000000     0.118200000000     0.230600000000     0.0567166  
H        H      0.958500000000     0.433400000000     0.200500000000     0.0567166  
H        H      0.274200000000     0.282100000000     0.007900000000     0.0567166  
H        H      0.786500000000     0.564900000000     0.452300000000     0.0567166  
H        H      0.528500000000     0.236100000000     0.082800000000     0.0567166  
H        H      0.651000000000     0.437800000000     0.510300000000     0.0567166  
H        H      0.853900000000     0.365800000000     0.485500000000     0.0567166  
H        H      0.888800000000     0.463800000000     0.614400000000     0.0567166  
H        H      0.855000000000     0.571800000000     0.593300000000     0.0567166  
H        H      0.965800000000     0.299600000000     0.938800000000     0.0567166  
H        H      0.652700000000     0.374900000000     0.894700000000     0.0567166  
H        H      0.220200000000     0.381800000000     0.269400000000     0.0567166  
C        C      0.927400000000     0.892960000000     0.675060000000    -0.00678706 
C        C      0.740500000000     0.803550000000     0.561050000000    -0.00678706 
C        C      0.404600000000     0.969490000000     0.502190000000    -0.00678706 
C        C      0.084800000000     0.891820000000     0.548020000000    -0.00678706 
C        C      0.155000000000     0.991900000000     0.936400000000    -0.00678706 
C        C      0.587800000000     0.776250000000     0.606550000000    -0.00678706 
C        C      0.196900000000     0.939280000000     0.001180000000    -0.00678706 
C        C      0.085500000000     0.000220000000     0.075320000000    -0.00678706 
C        C      0.120700000000     0.851140000000     0.471140000000    -0.00678706 
C        C      0.917600000000     0.863370000000     0.594770000000    -0.00678706 
C        C      0.268200000000     0.929740000000     0.863340000000    -0.00678706 
C        C      0.302100000000     0.895030000000     0.445530000000    -0.00678706 
C        C      0.768600000000     0.862040000000     0.716140000000    -0.00678706 
C        C      0.927400000000     0.607040000000     0.824940000000    -0.00678706 
C        C      0.740500000000     0.696450000000     0.938950000000    -0.00678706 
C        C      0.404600000000     0.530510000000     0.997810000000    -0.00678706 
C        C      0.084800000000     0.608180000000     0.951980000000    -0.00678706 
C        C      0.155000000000     0.508100000000     0.563600000000    -0.00678706 
C        C      0.587800000000     0.723750000000     0.893450000000    -0.00678706 
C        C      0.196900000000     0.560720000000     0.498820000000    -0.00678706 
C        C      0.085500000000     0.499780000000     0.424680000000    -0.00678706 
C        C      0.120700000000     0.648860000000     0.028860000000    -0.00678706 
C        C      0.917600000000     0.636630000000     0.905230000000    -0.00678706 
C        C      0.268200000000     0.570260000000     0.636660000000    -0.00678706 
C        C      0.302100000000     0.604970000000     0.054470000000    -0.00678706 
C        C      0.768600000000     0.637960000000     0.783860000000    -0.00678706 
C        C      0.072600000000     0.107040000000     0.324940000000    -0.00678706 
C        C      0.259500000000     0.196450000000     0.438950000000    -0.00678706 
C        C      0.595400000000     0.030510000000     0.497810000000    -0.00678706 
C        C      0.915200000000     0.108180000000     0.451980000000    -0.00678706 
C        C      0.845000000000     0.008100000000     0.063600000000    -0.00678706 
C        C      0.412200000000     0.223750000000     0.393450000000    -0.00678706 
C        C      0.803100000000     0.060720000000     0.998820000000    -0.00678706 
C        C      0.914500000000     0.999780000000     0.924680000000    -0.00678706 
C        C      0.879300000000     0.148860000000     0.528860000000    -0.00678706 
C        C      0.082400000000     0.136630000000     0.405230000000    -0.00678706 
C        C      0.731800000000     0.070260000000     0.136660000000    -0.00678706 
C        C      0.697900000000     0.104970000000     0.554470000000    -0.00678706 
C        C      0.231400000000     0.137960000000     0.283860000000    -0.00678706 
C        C      0.072600000000     0.392960000000     0.175060000000    -0.00678706 
C        C      0.259500000000     0.303550000000     0.061050000000    -0.00678706 
C        C      0.595400000000     0.469490000000     0.002190000000    -0.00678706 
C        C      0.915200000000     0.391820000000     0.048020000000    -0.00678706 
C        C      0.845000000000     0.491900000000     0.436400000000    -0.00678706 
C        C      0.412200000000     0.276250000000     0.106550000000    -0.00678706 
C        C      0.803100000000     0.439280000000     0.501180000000    -0.00678706 
C        C      0.914500000000     0.500220000000     0.575320000000    -0.00678706 
C        C      0.879300000000     0.351140000000     0.971140000000    -0.00678706 
C        C      0.082400000000     0.363370000000     0.094770000000    -0.00678706 
C        C      0.731800000000     0.429740000000     0.363340000000    -0.00678706 
C        C      0.697900000000     0.395030000000     0.945530000000    -0.00678706 
C        C      0.231400000000     0.362040000000     0.216140000000    -0.00678706 
S        S      0.276460000000     0.987280000000     0.589440000000    -0.0037782  
S        S      0.276460000000     0.512720000000     0.910560000000    -0.0037782  
S        S      0.723540000000     0.012720000000     0.410560000000    -0.0037782  
S        S      0.723540000000     0.487280000000     0.089440000000    -0.0037782  
N        N      0.598000000000     0.804880000000     0.683680000000    -0.17084    
N        N      0.598000000000     0.695120000000     0.816320000000    -0.17084    
N        N      0.402000000000     0.195120000000     0.316320000000    -0.17084    
N        N      0.402000000000     0.304880000000     0.183680000000    -0.17084    
O        O      0.431300000000     0.965630000000     0.842830000000    -0.285798   
O        O      0.196700000000     0.836450000000     0.829550000000    -0.285798   
O        O      0.431300000000     0.534370000000     0.657170000000    -0.285798   
O        O      0.196700000000     0.663550000000     0.670450000000    -0.285798   
O        O      0.568700000000     0.034370000000     0.157170000000    -0.285798   
O        O      0.803300000000     0.163550000000     0.170450000000    -0.285798   
O        O      0.568700000000     0.465630000000     0.342830000000    -0.285798   
O        O      0.803300000000     0.336450000000     0.329550000000    -0.285798   


