data_KIXXOG_original

_audit_creation_method RASPA-1.0
_audit_creation_date 2022-1-31
_audit_author_name 'Felipe Lopes de Oliveira <felipe.lopes.oliveira@ibm.com>'

_cell_length_a    6.7017
_cell_length_b    14.3958
_cell_length_c    14.9405
_cell_angle_alpha 90
_cell_angle_beta  90
_cell_angle_gamma 90
_cell_volume      1441.4

_symmetry_cell_setting          triclinic
_symmetry_space_group_name_Hall 'P 1'
_symmetry_space_group_name_H-M  'P 1'
_symmetry_Int_Tables_number     1

_symmetry_equiv_pos_as_xyz 'x,y,z'

loop_
_atom_site_label
_atom_site_type_symbol
_atom_site_fract_x
_atom_site_fract_y
_atom_site_fract_z
_atom_site_charge
Ca       Ca     0.863270000000     0.803860000000     0.458070000000     1.37756    
Ca       Ca     0.636730000000     0.196140000000     0.958070000000     1.37756    
Ca       Ca     0.136730000000     0.303860000000     0.041930000000     1.37756    
Ca       Ca     0.363270000000     0.696140000000     0.541930000000     1.37756    
H        H      0.853400000000     0.660200000000     0.751200000000     0.0402641  
H        H      0.891300000000     0.548600000000     0.862500000000     0.0402641  
H        H      0.864900000000     0.267500000000     0.710100000000     0.0402641  
H        H      0.868700000000     0.226300000000     0.563600000000     0.0402641  
H        H      0.878400000000     0.338800000000     0.451700000000     0.0402641  
H        H      0.875800000000     0.493100000000     0.488200000000     0.0402641  
H        H      0.646600000000     0.339800000000     0.251200000000     0.0402641  
H        H      0.608700000000     0.451400000000     0.362500000000     0.0402641  
H        H      0.635100000000     0.732500000000     0.210100000000     0.0402641  
H        H      0.631300000000     0.773700000000     0.063600000000     0.0402641  
H        H      0.621600000000     0.661200000000     0.951700000000     0.0402641  
H        H      0.624200000000     0.506900000000     0.988200000000     0.0402641  
H        H      0.146600000000     0.160200000000     0.748800000000     0.0402641  
H        H      0.108700000000     0.048600000000     0.637500000000     0.0402641  
H        H      0.135100000000     0.767500000000     0.789900000000     0.0402641  
H        H      0.131300000000     0.726300000000     0.936400000000     0.0402641  
H        H      0.121600000000     0.838800000000     0.048300000000     0.0402641  
H        H      0.124200000000     0.993100000000     0.011800000000     0.0402641  
H        H      0.353400000000     0.839800000000     0.248800000000     0.0402641  
H        H      0.391300000000     0.951400000000     0.137500000000     0.0402641  
H        H      0.364900000000     0.232500000000     0.289900000000     0.0402641  
H        H      0.368700000000     0.273700000000     0.436400000000     0.0402641  
H        H      0.378400000000     0.161200000000     0.548300000000     0.0402641  
H        H      0.375800000000     0.006900000000     0.511800000000     0.0402641  
C        C      0.863200000000     0.649100000000     0.578780000000     0.0285873  
C        C      0.865600000000     0.572990000000     0.647920000000     0.0285873  
C        C      0.864700000000     0.597840000000     0.735560000000     0.0285873  
C        C      0.880600000000     0.529860000000     0.803060000000     0.0285873  
C        C      0.880900000000     0.437730000000     0.783510000000     0.0285873  
C        C      0.872500000000     0.408530000000     0.692530000000     0.0285873  
C        C      0.872200000000     0.477510000000     0.623670000000     0.0285873  
C        C      0.868700000000     0.313440000000     0.666380000000     0.0285873  
C        C      0.870500000000     0.288830000000     0.579120000000     0.0285873  
C        C      0.875000000000     0.356660000000     0.511510000000     0.0285873  
C        C      0.874600000000     0.448670000000     0.533440000000     0.0285873  
C        C      0.891400000000     0.370120000000     0.861710000000     0.0285873  
C        C      0.636800000000     0.350900000000     0.078780000000     0.0285873  
C        C      0.634400000000     0.427010000000     0.147920000000     0.0285873  
C        C      0.635300000000     0.402160000000     0.235560000000     0.0285873  
C        C      0.619400000000     0.470140000000     0.303060000000     0.0285873  
C        C      0.619100000000     0.562270000000     0.283510000000     0.0285873  
C        C      0.627500000000     0.591470000000     0.192530000000     0.0285873  
C        C      0.627800000000     0.522490000000     0.123670000000     0.0285873  
C        C      0.631300000000     0.686560000000     0.166380000000     0.0285873  
C        C      0.629500000000     0.711170000000     0.079120000000     0.0285873  
C        C      0.625000000000     0.643340000000     0.011510000000     0.0285873  
C        C      0.625400000000     0.551330000000     0.033440000000     0.0285873  
C        C      0.608600000000     0.629880000000     0.361710000000     0.0285873  
C        C      0.136800000000     0.149100000000     0.921220000000     0.0285873  
C        C      0.134400000000     0.072990000000     0.852080000000     0.0285873  
C        C      0.135300000000     0.097840000000     0.764440000000     0.0285873  
C        C      0.119400000000     0.029860000000     0.696940000000     0.0285873  
C        C      0.119100000000     0.937730000000     0.716490000000     0.0285873  
C        C      0.127500000000     0.908530000000     0.807470000000     0.0285873  
C        C      0.127800000000     0.977510000000     0.876330000000     0.0285873  
C        C      0.131300000000     0.813440000000     0.833620000000     0.0285873  
C        C      0.129500000000     0.788830000000     0.920880000000     0.0285873  
C        C      0.125000000000     0.856660000000     0.988490000000     0.0285873  
C        C      0.125400000000     0.948670000000     0.966560000000     0.0285873  
C        C      0.108600000000     0.870120000000     0.638290000000     0.0285873  
C        C      0.363200000000     0.850900000000     0.421220000000     0.0285873  
C        C      0.365600000000     0.927010000000     0.352080000000     0.0285873  
C        C      0.364700000000     0.902160000000     0.264440000000     0.0285873  
C        C      0.380600000000     0.970140000000     0.196940000000     0.0285873  
C        C      0.380900000000     0.062270000000     0.216490000000     0.0285873  
C        C      0.372500000000     0.091470000000     0.307470000000     0.0285873  
C        C      0.372200000000     0.022490000000     0.376330000000     0.0285873  
C        C      0.368700000000     0.186560000000     0.333620000000     0.0285873  
C        C      0.370500000000     0.211170000000     0.420880000000     0.0285873  
C        C      0.375000000000     0.143340000000     0.488490000000     0.0285873  
C        C      0.374600000000     0.051330000000     0.466560000000     0.0285873  
C        C      0.391400000000     0.129880000000     0.138290000000     0.0285873  
O        O      0.718740000000     0.704530000000     0.578480000000    -0.490548   
O        O      0.008070000000     0.656530000000     0.525280000000    -0.490548   
O        O      0.782800000000     0.299480000000     0.858910000000    -0.490548   
O        O      0.007600000000     0.391300000000     0.924110000000    -0.490548   
O        O      0.781260000000     0.295470000000     0.078480000000    -0.490548   
O        O      0.491930000000     0.343470000000     0.025280000000    -0.490548   
O        O      0.717200000000     0.700520000000     0.358910000000    -0.490548   
O        O      0.492400000000     0.608700000000     0.424110000000    -0.490548   
O        O      0.281260000000     0.204530000000     0.921520000000    -0.490548   
O        O      0.991930000000     0.156530000000     0.974720000000    -0.490548   
O        O      0.217200000000     0.799480000000     0.641090000000    -0.490548   
O        O      0.992400000000     0.891300000000     0.575890000000    -0.490548   
O        O      0.218740000000     0.795470000000     0.421520000000    -0.490548   
O        O      0.508070000000     0.843470000000     0.474720000000    -0.490548   
O        O      0.282800000000     0.200520000000     0.141090000000    -0.490548   
O        O      0.507600000000     0.108700000000     0.075890000000    -0.490548   


