data_LABGAY_original

_audit_creation_method RASPA-1.0
_audit_creation_date 2022-1-30
_audit_author_name 'Felipe Lopes de Oliveira <felipe.lopes.oliveira@ibm.com>'

_cell_length_a    11.021
_cell_length_b    18.561
_cell_length_c    20.571
_cell_angle_alpha 90
_cell_angle_beta  90
_cell_angle_gamma 105.822
_cell_volume      4048.59

_symmetry_cell_setting          triclinic
_symmetry_space_group_name_Hall 'P 1'
_symmetry_space_group_name_H-M  'P 1'
_symmetry_Int_Tables_number     1

_symmetry_equiv_pos_as_xyz 'x,y,z'

loop_
_atom_site_label
_atom_site_type_symbol
_atom_site_fract_x
_atom_site_fract_y
_atom_site_fract_z
_atom_site_charge
Zn       Zn     0.954600000000     0.577980000000     0.896010000000     0.455545   
Zn       Zn     0.049490000000     0.166190000000     0.352270000000     0.455545   
Zn       Zn     0.045400000000     0.922020000000     0.396010000000     0.455545   
Zn       Zn     0.950510000000     0.333810000000     0.852270000000     0.455545   
Zn       Zn     0.045400000000     0.422020000000     0.103990000000     0.455545   
Zn       Zn     0.950510000000     0.833810000000     0.647730000000     0.455545   
Zn       Zn     0.954600000000     0.077980000000     0.603990000000     0.455545   
Zn       Zn     0.049490000000     0.666190000000     0.147730000000     0.455545   
H        H      0.928800000000     0.471900000000     0.771400000000     0.0888994  
H        H      0.086200000000     0.685400000000     0.786400000000     0.0888994  
H        H      0.092400000000     0.652500000000     0.671400000000     0.0888994  
H        H      0.007500000000     0.536400000000     0.604300000000     0.0888994  
H        H      0.900600000000     0.473700000000     0.637200000000     0.0888994  
H        H      0.047500000000     0.410900000000     0.670300000000     0.0888994  
H        H      0.158400000000     0.475500000000     0.641900000000     0.0888994  
H        H      0.962000000000     0.388100000000     0.562300000000     0.0888994  
H        H      0.082000000000     0.447500000000     0.536100000000     0.0888994  
H        H      0.074300000000     0.310000000000     0.590900000000     0.0888994  
H        H      0.202200000000     0.371700000000     0.580300000000     0.0888994  
H        H      0.010100000000     0.220900000000     0.493900000000     0.0888994  
H        H      0.212200000000     0.337100000000     0.353200000000     0.0888994  
H        H      0.235000000000     0.419300000000     0.448400000000     0.0888994  
H        H      0.843900000000     0.046000000000     0.422600000000     0.0888994  
H        H      0.785900000000     0.175700000000     0.282100000000     0.0888994  
H        H      0.581100000000     0.097900000000     0.316200000000     0.0888994  
H        H      0.613000000000     0.953000000000     0.428600000000     0.0888994  
H        H      0.506900000000     0.979300000000     0.392700000000     0.0888994  
H        H      0.520800000000     0.072900000000     0.472100000000     0.0888994  
H        H      0.626200000000     0.045900000000     0.508200000000     0.0888994  
H        H      0.636100000000     0.361200000000     0.856200000000     0.0888994  
H        H      0.467500000000     0.260600000000     0.878400000000     0.0888994  
H        H      0.592000000000     0.253300000000     0.059000000000     0.0888994  
H        H      0.369000000000     0.094600000000     0.103700000000     0.0888994  
H        H      0.275400000000     0.113300000000     0.199400000000     0.0888994  
H        H      0.315300000000     0.285600000000     0.035200000000     0.0888994  
H        H      0.071200000000     0.028100000000     0.271400000000     0.0888994  
H        H      0.913800000000     0.814600000000     0.286400000000     0.0888994  
H        H      0.907600000000     0.847500000000     0.171400000000     0.0888994  
H        H      0.992500000000     0.963600000000     0.104300000000     0.0888994  
H        H      0.099400000000     0.026300000000     0.137200000000     0.0888994  
H        H      0.952500000000     0.089100000000     0.170300000000     0.0888994  
H        H      0.841600000000     0.024500000000     0.141900000000     0.0888994  
H        H      0.038000000000     0.111900000000     0.062300000000     0.0888994  
H        H      0.918000000000     0.052500000000     0.036100000000     0.0888994  
H        H      0.925700000000     0.190000000000     0.090900000000     0.0888994  
H        H      0.797800000000     0.128300000000     0.080300000000     0.0888994  
H        H      0.989900000000     0.279100000000     0.993900000000     0.0888994  
H        H      0.787800000000     0.162900000000     0.853200000000     0.0888994  
H        H      0.765000000000     0.080700000000     0.948400000000     0.0888994  
H        H      0.156100000000     0.454000000000     0.922600000000     0.0888994  
H        H      0.214100000000     0.324300000000     0.782100000000     0.0888994  
H        H      0.418900000000     0.402100000000     0.816200000000     0.0888994  
H        H      0.387000000000     0.547000000000     0.928600000000     0.0888994  
H        H      0.493100000000     0.520700000000     0.892700000000     0.0888994  
H        H      0.479200000000     0.427100000000     0.972100000000     0.0888994  
H        H      0.373800000000     0.454100000000     0.008200000000     0.0888994  
H        H      0.363900000000     0.138800000000     0.356200000000     0.0888994  
H        H      0.532500000000     0.239400000000     0.378400000000     0.0888994  
H        H      0.408000000000     0.246700000000     0.559000000000     0.0888994  
H        H      0.631000000000     0.405400000000     0.603700000000     0.0888994  
H        H      0.724600000000     0.386700000000     0.699400000000     0.0888994  
H        H      0.684700000000     0.214400000000     0.535200000000     0.0888994  
H        H      0.071200000000     0.528100000000     0.228600000000     0.0888994  
H        H      0.913800000000     0.314600000000     0.213600000000     0.0888994  
H        H      0.907600000000     0.347500000000     0.328600000000     0.0888994  
H        H      0.992500000000     0.463600000000     0.395700000000     0.0888994  
H        H      0.099400000000     0.526300000000     0.362800000000     0.0888994  
H        H      0.952500000000     0.589100000000     0.329700000000     0.0888994  
H        H      0.841600000000     0.524500000000     0.358100000000     0.0888994  
H        H      0.038000000000     0.611900000000     0.437700000000     0.0888994  
H        H      0.918000000000     0.552500000000     0.463900000000     0.0888994  
H        H      0.925700000000     0.690000000000     0.409100000000     0.0888994  
H        H      0.797800000000     0.628300000000     0.419700000000     0.0888994  
H        H      0.989900000000     0.779100000000     0.506100000000     0.0888994  
H        H      0.787800000000     0.662900000000     0.646800000000     0.0888994  
H        H      0.765000000000     0.580700000000     0.551600000000     0.0888994  
H        H      0.156100000000     0.954000000000     0.577400000000     0.0888994  
H        H      0.214100000000     0.824300000000     0.717900000000     0.0888994  
H        H      0.418900000000     0.902100000000     0.683800000000     0.0888994  
H        H      0.387000000000     0.047000000000     0.571400000000     0.0888994  
H        H      0.493100000000     0.020700000000     0.607300000000     0.0888994  
H        H      0.479200000000     0.927100000000     0.527900000000     0.0888994  
H        H      0.373800000000     0.954100000000     0.491800000000     0.0888994  
H        H      0.363900000000     0.638800000000     0.143800000000     0.0888994  
H        H      0.532500000000     0.739400000000     0.121600000000     0.0888994  
H        H      0.408000000000     0.746700000000     0.941000000000     0.0888994  
H        H      0.631000000000     0.905400000000     0.896300000000     0.0888994  
H        H      0.724600000000     0.886700000000     0.800600000000     0.0888994  
H        H      0.684700000000     0.714400000000     0.964800000000     0.0888994  
H        H      0.928800000000     0.971900000000     0.728600000000     0.0888994  
H        H      0.086200000000     0.185400000000     0.713600000000     0.0888994  
H        H      0.092400000000     0.152500000000     0.828600000000     0.0888994  
H        H      0.007500000000     0.036400000000     0.895700000000     0.0888994  
H        H      0.900600000000     0.973700000000     0.862800000000     0.0888994  
H        H      0.047500000000     0.910900000000     0.829700000000     0.0888994  
H        H      0.158400000000     0.975500000000     0.858100000000     0.0888994  
H        H      0.962000000000     0.888100000000     0.937700000000     0.0888994  
H        H      0.082000000000     0.947500000000     0.963900000000     0.0888994  
H        H      0.074300000000     0.810000000000     0.909100000000     0.0888994  
H        H      0.202200000000     0.871700000000     0.919700000000     0.0888994  
H        H      0.010100000000     0.720900000000     0.006100000000     0.0888994  
H        H      0.212200000000     0.837100000000     0.146800000000     0.0888994  
H        H      0.235000000000     0.919300000000     0.051600000000     0.0888994  
H        H      0.843900000000     0.546000000000     0.077400000000     0.0888994  
H        H      0.785900000000     0.675700000000     0.217900000000     0.0888994  
H        H      0.581100000000     0.597900000000     0.183800000000     0.0888994  
H        H      0.613000000000     0.453000000000     0.071400000000     0.0888994  
H        H      0.506900000000     0.479300000000     0.107300000000     0.0888994  
H        H      0.520800000000     0.572900000000     0.027900000000     0.0888994  
H        H      0.626200000000     0.545900000000     0.991800000000     0.0888994  
H        H      0.636100000000     0.861200000000     0.643800000000     0.0888994  
H        H      0.467500000000     0.760600000000     0.621600000000     0.0888994  
H        H      0.592000000000     0.753300000000     0.441000000000     0.0888994  
H        H      0.369000000000     0.594600000000     0.396300000000     0.0888994  
H        H      0.275400000000     0.613300000000     0.300600000000     0.0888994  
H        H      0.315300000000     0.785600000000     0.464800000000     0.0888994  
C        C      0.970500000000     0.521300000000     0.761400000000     0.0786745  
C        C      0.056100000000     0.637800000000     0.768500000000     0.0786745  
C        C      0.059400000000     0.619800000000     0.705200000000     0.0786745  
C        C      0.988400000000     0.502100000000     0.640700000000     0.0786745  
C        C      0.070400000000     0.448300000000     0.636200000000     0.0786745  
C        C      0.051400000000     0.410100000000     0.569500000000     0.0786745  
C        C      0.116700000000     0.352600000000     0.564200000000     0.0786745  
C        C      0.063500000000     0.259700000000     0.470500000000     0.0786745  
C        C      0.174000000000     0.324100000000     0.393500000000     0.0786745  
C        C      0.188100000000     0.369400000000     0.446100000000     0.0786745  
C        C      0.804500000000     0.068400000000     0.391700000000     0.0786745  
C        C      0.771800000000     0.139600000000     0.314600000000     0.0786745  
C        C      0.658900000000     0.096900000000     0.333200000000     0.0786745  
C        C      0.582500000000     0.996200000000     0.418900000000     0.0786745  
C        C      0.551100000000     0.029600000000     0.481600000000     0.0786745  
C        C      0.826100000000     0.433300000000     0.925700000000     0.0786745  
C        C      0.719600000000     0.367900000000     0.944500000000     0.0786745  
C        C      0.628200000000     0.339400000000     0.897200000000     0.0786745  
C        C      0.526600000000     0.279400000000     0.910700000000     0.0786745  
C        C      0.510800000000     0.246800000000     0.971400000000     0.0786745  
C        C      0.601600000000     0.274600000000     0.017800000000     0.0786745  
C        C      0.707600000000     0.333900000000     0.004800000000     0.0786745  
C        C      0.809200000000     0.354000000000     0.055000000000     0.0786745  
C        C      0.401300000000     0.177600000000     0.989700000000     0.0786745  
C        C      0.289900000000     0.164200000000     0.941600000000     0.0786745  
C        C      0.457400000000     0.109100000000     0.987000000000     0.0786745  
C        C      0.348500000000     0.187500000000     0.057600000000     0.0786745  
C        C      0.337600000000     0.136000000000     0.108400000000     0.0786745  
C        C      0.280200000000     0.147100000000     0.165400000000     0.0786745  
C        C      0.229300000000     0.207000000000     0.174000000000     0.0786745  
C        C      0.150900000000     0.208600000000     0.234800000000     0.0786745  
C        C      0.242400000000     0.260000000000     0.124600000000     0.0786745  
C        C      0.199500000000     0.330000000000     0.130100000000     0.0786745  
C        C      0.303800000000     0.249500000000     0.067700000000     0.0786745  
C        C      0.029500000000     0.978700000000     0.261400000000     0.0786745  
C        C      0.943900000000     0.862200000000     0.268500000000     0.0786745  
C        C      0.940600000000     0.880200000000     0.205200000000     0.0786745  
C        C      0.011600000000     0.997900000000     0.140700000000     0.0786745  
C        C      0.929600000000     0.051700000000     0.136200000000     0.0786745  
C        C      0.948600000000     0.089900000000     0.069500000000     0.0786745  
C        C      0.883300000000     0.147400000000     0.064200000000     0.0786745  
C        C      0.936500000000     0.240300000000     0.970500000000     0.0786745  
C        C      0.826000000000     0.175900000000     0.893500000000     0.0786745  
C        C      0.811900000000     0.130600000000     0.946100000000     0.0786745  
C        C      0.195500000000     0.431600000000     0.891700000000     0.0786745  
C        C      0.228200000000     0.360400000000     0.814600000000     0.0786745  
C        C      0.341100000000     0.403100000000     0.833200000000     0.0786745  
C        C      0.417500000000     0.503800000000     0.918900000000     0.0786745  
C        C      0.448900000000     0.470400000000     0.981600000000     0.0786745  
C        C      0.173900000000     0.066700000000     0.425700000000     0.0786745  
C        C      0.280400000000     0.132100000000     0.444500000000     0.0786745  
C        C      0.371800000000     0.160600000000     0.397200000000     0.0786745  
C        C      0.473400000000     0.220600000000     0.410700000000     0.0786745  
C        C      0.489200000000     0.253200000000     0.471400000000     0.0786745  
C        C      0.398400000000     0.225400000000     0.517800000000     0.0786745  
C        C      0.292400000000     0.166100000000     0.504800000000     0.0786745  
C        C      0.190800000000     0.146000000000     0.555000000000     0.0786745  
C        C      0.598700000000     0.322400000000     0.489700000000     0.0786745  
C        C      0.710100000000     0.335800000000     0.441600000000     0.0786745  
C        C      0.542600000000     0.390900000000     0.487000000000     0.0786745  
C        C      0.651500000000     0.312500000000     0.557600000000     0.0786745  
C        C      0.662400000000     0.364000000000     0.608400000000     0.0786745  
C        C      0.719800000000     0.352900000000     0.665400000000     0.0786745  
C        C      0.770700000000     0.293000000000     0.674000000000     0.0786745  
C        C      0.849100000000     0.291400000000     0.734800000000     0.0786745  
C        C      0.757600000000     0.240000000000     0.624600000000     0.0786745  
C        C      0.800500000000     0.170000000000     0.630100000000     0.0786745  
C        C      0.696200000000     0.250500000000     0.567700000000     0.0786745  
C        C      0.029500000000     0.478700000000     0.238600000000     0.0786745  
C        C      0.943900000000     0.362200000000     0.231500000000     0.0786745  
C        C      0.940600000000     0.380200000000     0.294800000000     0.0786745  
C        C      0.011600000000     0.497900000000     0.359300000000     0.0786745  
C        C      0.929600000000     0.551700000000     0.363800000000     0.0786745  
C        C      0.948600000000     0.589900000000     0.430500000000     0.0786745  
C        C      0.883300000000     0.647400000000     0.435800000000     0.0786745  
C        C      0.936500000000     0.740300000000     0.529500000000     0.0786745  
C        C      0.826000000000     0.675900000000     0.606500000000     0.0786745  
C        C      0.811900000000     0.630600000000     0.553900000000     0.0786745  
C        C      0.195500000000     0.931600000000     0.608300000000     0.0786745  
C        C      0.228200000000     0.860400000000     0.685400000000     0.0786745  
C        C      0.341100000000     0.903100000000     0.666800000000     0.0786745  
C        C      0.417500000000     0.003800000000     0.581100000000     0.0786745  
C        C      0.448900000000     0.970400000000     0.518400000000     0.0786745  
C        C      0.173900000000     0.566700000000     0.074300000000     0.0786745  
C        C      0.280400000000     0.632100000000     0.055500000000     0.0786745  
C        C      0.371800000000     0.660600000000     0.102800000000     0.0786745  
C        C      0.473400000000     0.720600000000     0.089300000000     0.0786745  
C        C      0.489200000000     0.753200000000     0.028600000000     0.0786745  
C        C      0.398400000000     0.725400000000     0.982200000000     0.0786745  
C        C      0.292400000000     0.666100000000     0.995200000000     0.0786745  
C        C      0.190800000000     0.646000000000     0.945000000000     0.0786745  
C        C      0.598700000000     0.822400000000     0.010300000000     0.0786745  
C        C      0.710100000000     0.835800000000     0.058400000000     0.0786745  
C        C      0.542600000000     0.890900000000     0.013000000000     0.0786745  
C        C      0.651500000000     0.812500000000     0.942400000000     0.0786745  
C        C      0.662400000000     0.864000000000     0.891600000000     0.0786745  
C        C      0.719800000000     0.852900000000     0.834600000000     0.0786745  
C        C      0.770700000000     0.793000000000     0.826000000000     0.0786745  
C        C      0.849100000000     0.791400000000     0.765200000000     0.0786745  
C        C      0.757600000000     0.740000000000     0.875400000000     0.0786745  
C        C      0.800500000000     0.670000000000     0.869900000000     0.0786745  
C        C      0.696200000000     0.750500000000     0.932300000000     0.0786745  
C        C      0.970500000000     0.021300000000     0.738600000000     0.0786745  
C        C      0.056100000000     0.137800000000     0.731500000000     0.0786745  
C        C      0.059400000000     0.119800000000     0.794800000000     0.0786745  
C        C      0.988400000000     0.002100000000     0.859300000000     0.0786745  
C        C      0.070400000000     0.948300000000     0.863800000000     0.0786745  
C        C      0.051400000000     0.910100000000     0.930500000000     0.0786745  
C        C      0.116700000000     0.852600000000     0.935800000000     0.0786745  
C        C      0.063500000000     0.759700000000     0.029500000000     0.0786745  
C        C      0.174000000000     0.824100000000     0.106500000000     0.0786745  
C        C      0.188100000000     0.869400000000     0.053900000000     0.0786745  
C        C      0.804500000000     0.568400000000     0.108300000000     0.0786745  
C        C      0.771800000000     0.639600000000     0.185400000000     0.0786745  
C        C      0.658900000000     0.596900000000     0.166800000000     0.0786745  
C        C      0.582500000000     0.496200000000     0.081100000000     0.0786745  
C        C      0.551100000000     0.529600000000     0.018400000000     0.0786745  
C        C      0.826100000000     0.933300000000     0.574300000000     0.0786745  
C        C      0.719600000000     0.867900000000     0.555500000000     0.0786745  
C        C      0.628200000000     0.839400000000     0.602800000000     0.0786745  
C        C      0.526600000000     0.779400000000     0.589300000000     0.0786745  
C        C      0.510800000000     0.746800000000     0.528600000000     0.0786745  
C        C      0.601600000000     0.774600000000     0.482200000000     0.0786745  
C        C      0.707600000000     0.833900000000     0.495200000000     0.0786745  
C        C      0.809200000000     0.854000000000     0.445000000000     0.0786745  
C        C      0.401300000000     0.677600000000     0.510300000000     0.0786745  
C        C      0.289900000000     0.664200000000     0.558400000000     0.0786745  
C        C      0.457400000000     0.609100000000     0.513000000000     0.0786745  
C        C      0.348500000000     0.687500000000     0.442400000000     0.0786745  
C        C      0.337600000000     0.636000000000     0.391600000000     0.0786745  
C        C      0.280200000000     0.647100000000     0.334600000000     0.0786745  
C        C      0.229300000000     0.707000000000     0.326000000000     0.0786745  
C        C      0.150900000000     0.708600000000     0.265200000000     0.0786745  
C        C      0.242400000000     0.760000000000     0.375400000000     0.0786745  
C        C      0.199500000000     0.830000000000     0.369900000000     0.0786745  
C        C      0.303800000000     0.749500000000     0.432300000000     0.0786745  
N        N      0.998400000000     0.571000000000     0.803000000000    -0.132516   
N        N      0.005300000000     0.544500000000     0.699800000000    -0.132516   
N        N      0.120100000000     0.327700000000     0.494900000000    -0.132516   
N        N      0.093800000000     0.255300000000     0.409400000000    -0.132516   
N        N      0.863500000000     0.121700000000     0.350900000000    -0.132516   
N        N      0.679300000000     0.051500000000     0.381900000000    -0.132516   
N        N      0.001600000000     0.929000000000     0.303000000000    -0.132516   
N        N      0.994700000000     0.955500000000     0.199800000000    -0.132516   
N        N      0.879900000000     0.172300000000     0.994900000000    -0.132516   
N        N      0.906200000000     0.244700000000     0.909400000000    -0.132516   
N        N      0.136500000000     0.378300000000     0.850900000000    -0.132516   
N        N      0.320700000000     0.448500000000     0.881900000000    -0.132516   
N        N      0.001600000000     0.429000000000     0.197000000000    -0.132516   
N        N      0.994700000000     0.455500000000     0.300200000000    -0.132516   
N        N      0.879900000000     0.672300000000     0.505100000000    -0.132516   
N        N      0.906200000000     0.744700000000     0.590600000000    -0.132516   
N        N      0.136500000000     0.878300000000     0.649100000000    -0.132516   
N        N      0.320700000000     0.948500000000     0.618100000000    -0.132516   
N        N      0.998400000000     0.071000000000     0.697000000000    -0.132516   
N        N      0.005300000000     0.044500000000     0.800200000000    -0.132516   
N        N      0.120100000000     0.827700000000     0.005100000000    -0.132516   
N        N      0.093800000000     0.755300000000     0.090600000000    -0.132516   
N        N      0.863500000000     0.621700000000     0.149100000000    -0.132516   
N        N      0.679300000000     0.551500000000     0.118100000000    -0.132516   
O        O      0.919500000000     0.423800000000     0.895680000000    -0.27506    
O        O      0.815600000000     0.497800000000     0.936930000000    -0.27506    
O        O      0.903800000000     0.406900000000     0.042620000000    -0.27506    
O        O      0.802700000000     0.312100000000     0.102400000000    -0.27506    
O        O      0.161300000000     0.167000000000     0.279300000000    -0.27506    
O        O      0.068500000000     0.238900000000     0.235100000000    -0.27506    
O        O      0.256800000000     0.380200000000     0.164300000000    -0.27506    
O        O      0.106800000000     0.331900000000     0.094300000000    -0.27506    
O        O      0.080500000000     0.076200000000     0.395680000000    -0.27506    
O        O      0.184400000000     0.002200000000     0.436930000000    -0.27506    
O        O      0.096200000000     0.093100000000     0.542620000000    -0.27506    
O        O      0.197300000000     0.187900000000     0.602400000000    -0.27506    
O        O      0.838700000000     0.333000000000     0.779300000000    -0.27506    
O        O      0.931500000000     0.261100000000     0.735100000000    -0.27506    
O        O      0.743200000000     0.119800000000     0.664300000000    -0.27506    
O        O      0.893200000000     0.168100000000     0.594300000000    -0.27506    
O        O      0.080500000000     0.576200000000     0.104320000000    -0.27506    
O        O      0.184400000000     0.502200000000     0.063070000000    -0.27506    
O        O      0.096200000000     0.593100000000     0.957380000000    -0.27506    
O        O      0.197300000000     0.687900000000     0.897600000000    -0.27506    
O        O      0.838700000000     0.833000000000     0.720700000000    -0.27506    
O        O      0.931500000000     0.761100000000     0.764900000000    -0.27506    
O        O      0.743200000000     0.619800000000     0.835700000000    -0.27506    
O        O      0.893200000000     0.668100000000     0.905700000000    -0.27506    
O        O      0.919500000000     0.923800000000     0.604320000000    -0.27506    
O        O      0.815600000000     0.997800000000     0.563070000000    -0.27506    
O        O      0.903800000000     0.906900000000     0.457380000000    -0.27506    
O        O      0.802700000000     0.812100000000     0.397600000000    -0.27506    
O        O      0.161300000000     0.667000000000     0.220700000000    -0.27506    
O        O      0.068500000000     0.738900000000     0.264900000000    -0.27506    
O        O      0.256800000000     0.880200000000     0.335700000000    -0.27506    
O        O      0.106800000000     0.831900000000     0.405700000000    -0.27506    
F        F      0.252700000000     0.224900000000     0.931140000000    -0.498454   
F        F      0.189900000000     0.111600000000     0.964800000000    -0.498454   
F        F      0.315800000000     0.138900000000     0.883390000000    -0.498454   
F        F      0.511000000000     0.105000000000     0.928800000000    -0.498454   
F        F      0.367600000000     0.044100000000     0.993200000000    -0.498454   
F        F      0.541900000000     0.111300000000     0.031300000000    -0.498454   
F        F      0.747300000000     0.275100000000     0.431140000000    -0.498454   
F        F      0.810100000000     0.388400000000     0.464800000000    -0.498454   
F        F      0.684200000000     0.361100000000     0.383390000000    -0.498454   
F        F      0.489000000000     0.395000000000     0.428800000000    -0.498454   
F        F      0.632400000000     0.455900000000     0.493200000000    -0.498454   
F        F      0.458100000000     0.388700000000     0.531300000000    -0.498454   
F        F      0.747300000000     0.775100000000     0.068860000000    -0.498454   
F        F      0.810100000000     0.888400000000     0.035200000000    -0.498454   
F        F      0.684200000000     0.861100000000     0.116610000000    -0.498454   
F        F      0.489000000000     0.895000000000     0.071200000000    -0.498454   
F        F      0.632400000000     0.955900000000     0.006800000000    -0.498454   
F        F      0.458100000000     0.888700000000     0.968700000000    -0.498454   
F        F      0.252700000000     0.724900000000     0.568860000000    -0.498454   
F        F      0.189900000000     0.611600000000     0.535200000000    -0.498454   
F        F      0.315800000000     0.638900000000     0.616610000000    -0.498454   
F        F      0.511000000000     0.605000000000     0.571200000000    -0.498454   
F        F      0.367600000000     0.544100000000     0.506800000000    -0.498454   
F        F      0.541900000000     0.611300000000     0.468700000000    -0.498454   


