data_LAJDUV03_original

_audit_creation_method RASPA-1.0
_audit_creation_date 2022-1-30
_audit_author_name 'Felipe Lopes de Oliveira <felipe.lopes.oliveira@ibm.com>'

_cell_length_a    8.947
_cell_length_b    8.947
_cell_length_c    10.898
_cell_angle_alpha 90
_cell_angle_beta  90
_cell_angle_gamma 120
_cell_volume      755.496

_symmetry_cell_setting          triclinic
_symmetry_space_group_name_Hall 'P 1'
_symmetry_space_group_name_H-M  'P 1'
_symmetry_Int_Tables_number     1

_symmetry_equiv_pos_as_xyz 'x,y,z'

loop_
_atom_site_label
_atom_site_type_symbol
_atom_site_fract_x
_atom_site_fract_y
_atom_site_fract_z
_atom_site_charge
Ti       Ti     0.000000000000     0.500000000000     0.166670000000     1.4249     
Ti       Ti     0.500000000000     0.000000000000     0.833330000000     1.4249     
Ti       Ti     0.500000000000     0.500000000000     0.500000000000     1.4249     
H        H      0.895290000000     0.910300000000     0.882840000000     0.138863   
H        H      0.104710000000     0.089700000000     0.882840000000     0.138863   
H        H      0.984990000000     0.089700000000     0.783830000000     0.138863   
H        H      0.015010000000     0.910300000000     0.783830000000     0.138863   
H        H      0.015010000000     0.104710000000     0.549510000000     0.138863   
H        H      0.984990000000     0.895290000000     0.549510000000     0.138863   
H        H      0.104710000000     0.015010000000     0.450490000000     0.138863   
H        H      0.895290000000     0.984990000000     0.450490000000     0.138863   
H        H      0.089700000000     0.984990000000     0.216170000000     0.138863   
H        H      0.910300000000     0.015010000000     0.216170000000     0.138863   
H        H      0.910300000000     0.895290000000     0.117160000000     0.138863   
H        H      0.089700000000     0.104710000000     0.117160000000     0.138863   
C        C      0.308470000000     0.616940000000     0.333330000000     0.261243   
C        C      0.210520000000     0.421040000000     0.333330000000     0.261243   
C        C      0.308470000000     0.691530000000     0.000000000000     0.261243   
C        C      0.210520000000     0.789480000000     0.000000000000     0.261243   
C        C      0.383060000000     0.691530000000     0.666670000000     0.261243   
C        C      0.578960000000     0.789480000000     0.666670000000     0.261243   
C        C      0.691530000000     0.383060000000     0.333330000000     0.261243   
C        C      0.789480000000     0.578960000000     0.333330000000     0.261243   
C        C      0.691530000000     0.308470000000     0.000000000000     0.261243   
C        C      0.789480000000     0.210520000000     0.000000000000     0.261243   
C        C      0.616940000000     0.308470000000     0.666670000000     0.261243   
C        C      0.421040000000     0.210520000000     0.666670000000     0.261243   
N        N      0.000000000000     0.000000000000     0.833330000000    -0.295815   
N        N      0.000000000000     0.000000000000     0.500000000000    -0.295815   
N        N      0.000000000000     0.000000000000     0.166670000000    -0.295815   
O        O      0.237100000000     0.686000000000     0.276290000000    -0.341188   
O        O      0.076100000000     0.348500000000     0.269990000000    -0.341188   
O        O      0.448900000000     0.762900000000     0.942960000000    -0.341188   
O        O      0.272400000000     0.923900000000     0.936660000000    -0.341188   
O        O      0.314000000000     0.551100000000     0.609620000000    -0.341188   
O        O      0.651500000000     0.727600000000     0.603320000000    -0.341188   
O        O      0.762900000000     0.314000000000     0.276290000000    -0.341188   
O        O      0.923900000000     0.651500000000     0.269990000000    -0.341188   
O        O      0.551100000000     0.237100000000     0.942960000000    -0.341188   
O        O      0.727600000000     0.076100000000     0.936660000000    -0.341188   
O        O      0.686000000000     0.448900000000     0.609620000000    -0.341188   
O        O      0.348500000000     0.272400000000     0.603320000000    -0.341188   
O        O      0.551100000000     0.314000000000     0.390380000000    -0.341188   
O        O      0.727600000000     0.651500000000     0.396680000000    -0.341188   
O        O      0.686000000000     0.237100000000     0.723710000000    -0.341188   
O        O      0.348500000000     0.076100000000     0.730010000000    -0.341188   
O        O      0.762900000000     0.448900000000     0.057040000000    -0.341188   
O        O      0.923900000000     0.272400000000     0.063340000000    -0.341188   
O        O      0.448900000000     0.686000000000     0.390380000000    -0.341188   
O        O      0.272400000000     0.348500000000     0.396680000000    -0.341188   
O        O      0.314000000000     0.762900000000     0.723710000000    -0.341188   
O        O      0.651500000000     0.923900000000     0.730010000000    -0.341188   
O        O      0.237100000000     0.551100000000     0.057040000000    -0.341188   
O        O      0.076100000000     0.727600000000     0.063340000000    -0.341188   


