data_LAWGUM_original

_audit_creation_method RASPA-1.0
_audit_creation_date 2022-1-31
_audit_author_name 'Felipe Lopes de Oliveira <felipe.lopes.oliveira@ibm.com>'

_cell_length_a    18.3127
_cell_length_b    18.3127
_cell_length_c    18.3127
_cell_angle_alpha 60
_cell_angle_beta  60
_cell_angle_gamma 60
_cell_volume      4342.52

_symmetry_cell_setting          triclinic
_symmetry_space_group_name_Hall 'P 1'
_symmetry_space_group_name_H-M  'P 1'
_symmetry_Int_Tables_number     1

_symmetry_equiv_pos_as_xyz 'x,y,z'

loop_
_atom_site_label
_atom_site_type_symbol
_atom_site_fract_x
_atom_site_fract_y
_atom_site_fract_z
_atom_site_charge
Zn       Zn     0.206660000000     0.380010000000     0.206660000000     0.473078   
Zn       Zn     0.380010000000     0.206660000000     0.206660000000     0.473078   
Zn       Zn     0.206670000000     0.206660000000     0.206660000000     0.473078   
Zn       Zn     0.206670000000     0.206660000000     0.380010000000     0.473078   
Zn       Zn     0.619990000000     0.793340000000     0.793340000000     0.473078   
Zn       Zn     0.793340000000     0.619990000000     0.793330000000     0.473078   
Zn       Zn     0.793340000000     0.793330000000     0.793340000000     0.473078   
Zn       Zn     0.793340000000     0.793330000000     0.619990000000     0.473078   
H        H      0.045200000000     0.565800000000     0.045200000000     0.0604324  
H        H      0.565800000000     0.045200000000     0.343800000000     0.0604324  
H        H      0.045200000000     0.343800000000     0.045200000000     0.0604324  
H        H      0.343800000000     0.045200000000     0.565800000000     0.0604324  
H        H      0.045200000000     0.045200000000     0.343800000000     0.0604324  
H        H      0.565800000000     0.343800000000     0.045200000000     0.0604324  
H        H      0.045200000000     0.045200000000     0.565800000000     0.0604324  
H        H      0.343800000000     0.565800000000     0.045200000000     0.0604324  
H        H      0.045200000000     0.343800000000     0.565800000000     0.0604324  
H        H      0.565800000000     0.045200000000     0.045200000000     0.0604324  
H        H      0.045200000000     0.565800000000     0.343800000000     0.0604324  
H        H      0.343800000000     0.045200000000     0.045200000000     0.0604324  
H        H      0.434200000000     0.954800000000     0.954800000000     0.0604324  
H        H      0.954800000000     0.434200000000     0.656200000000     0.0604324  
H        H      0.656200000000     0.954800000000     0.954800000000     0.0604324  
H        H      0.954800000000     0.656200000000     0.434200000000     0.0604324  
H        H      0.954800000000     0.954800000000     0.656200000000     0.0604324  
H        H      0.656200000000     0.434200000000     0.954800000000     0.0604324  
H        H      0.954800000000     0.954800000000     0.434200000000     0.0604324  
H        H      0.434200000000     0.656200000000     0.954800000000     0.0604324  
H        H      0.656200000000     0.954800000000     0.434200000000     0.0604324  
H        H      0.954800000000     0.434200000000     0.954800000000     0.0604324  
H        H      0.434200000000     0.954800000000     0.656200000000     0.0604324  
H        H      0.954800000000     0.656200000000     0.954800000000     0.0604324  
C        C      0.026880000000     0.539300000000     0.026880000000     0.0573017  
C        C      0.539300000000     0.026880000000     0.406940000000     0.0573017  
C        C      0.026880000000     0.406940000000     0.026880000000     0.0573017  
C        C      0.406940000000     0.026880000000     0.539300000000     0.0573017  
C        C      0.026880000000     0.026880000000     0.406940000000     0.0573017  
C        C      0.539300000000     0.406940000000     0.026880000000     0.0573017  
C        C      0.026880000000     0.026880000000     0.539300000000     0.0573017  
C        C      0.406940000000     0.539300000000     0.026880000000     0.0573017  
C        C      0.026880000000     0.406940000000     0.539300000000     0.0573017  
C        C      0.539300000000     0.026880000000     0.026880000000     0.0573017  
C        C      0.026880000000     0.539300000000     0.406940000000     0.0573017  
C        C      0.406940000000     0.026880000000     0.026880000000     0.0573017  
C        C      0.460700000000     0.973120000000     0.973120000000     0.0573017  
C        C      0.973120000000     0.460700000000     0.593060000000     0.0573017  
C        C      0.593060000000     0.973120000000     0.973120000000     0.0573017  
C        C      0.973120000000     0.593060000000     0.460700000000     0.0573017  
C        C      0.973120000000     0.973120000000     0.593060000000     0.0573017  
C        C      0.593060000000     0.460700000000     0.973120000000     0.0573017  
C        C      0.973120000000     0.973120000000     0.460700000000     0.0573017  
C        C      0.460700000000     0.593060000000     0.973120000000     0.0573017  
C        C      0.593060000000     0.973120000000     0.460700000000     0.0573017  
C        C      0.973120000000     0.460700000000     0.973120000000     0.0573017  
C        C      0.460700000000     0.973120000000     0.593060000000     0.0573017  
C        C      0.973120000000     0.593060000000     0.973120000000     0.0573017  
C        C      0.111420000000     0.388580000000     0.111420000000     0.0573017  
C        C      0.053810000000     0.446190000000     0.053810000000     0.0573017  
C        C      0.388580000000     0.111420000000     0.388580000000     0.0573017  
C        C      0.446190000000     0.053810000000     0.446190000000     0.0573017  
C        C      0.111420000000     0.111420000000     0.388580000000     0.0573017  
C        C      0.053810000000     0.053810000000     0.446190000000     0.0573017  
C        C      0.388580000000     0.388580000000     0.111420000000     0.0573017  
C        C      0.446190000000     0.446190000000     0.053810000000     0.0573017  
C        C      0.111420000000     0.388580000000     0.388580000000     0.0573017  
C        C      0.053810000000     0.446190000000     0.446190000000     0.0573017  
C        C      0.388580000000     0.111420000000     0.111420000000     0.0573017  
C        C      0.446190000000     0.053810000000     0.053810000000     0.0573017  
C        C      0.611420000000     0.888580000000     0.888580000000     0.0573017  
C        C      0.553810000000     0.946190000000     0.946190000000     0.0573017  
C        C      0.888580000000     0.611420000000     0.611420000000     0.0573017  
C        C      0.946190000000     0.553810000000     0.553810000000     0.0573017  
C        C      0.888580000000     0.888580000000     0.611420000000     0.0573017  
C        C      0.946190000000     0.946190000000     0.553810000000     0.0573017  
C        C      0.611420000000     0.611420000000     0.888580000000     0.0573017  
C        C      0.553810000000     0.553810000000     0.946190000000     0.0573017  
C        C      0.611420000000     0.888580000000     0.611420000000     0.0573017  
C        C      0.553810000000     0.946190000000     0.553810000000     0.0573017  
C        C      0.888580000000     0.611420000000     0.888580000000     0.0573017  
C        C      0.946190000000     0.553810000000     0.946190000000     0.0573017  
O        O      0.250000000000     0.250000000000     0.250000000000    -0.307134   
O        O      0.750000000000     0.750000000000     0.750000000000    -0.307134   
O        O      0.133690000000     0.427730000000     0.133690000000    -0.307134   
O        O      0.427730000000     0.133690000000     0.304890000000    -0.307134   
O        O      0.133690000000     0.304890000000     0.133690000000    -0.307134   
O        O      0.304890000000     0.133690000000     0.427730000000    -0.307134   
O        O      0.133690000000     0.133690000000     0.304890000000    -0.307134   
O        O      0.427730000000     0.304890000000     0.133690000000    -0.307134   
O        O      0.133690000000     0.133690000000     0.427730000000    -0.307134   
O        O      0.304890000000     0.427730000000     0.133690000000    -0.307134   
O        O      0.133690000000     0.304890000000     0.427730000000    -0.307134   
O        O      0.427730000000     0.133690000000     0.133690000000    -0.307134   
O        O      0.133690000000     0.427730000000     0.304890000000    -0.307134   
O        O      0.304890000000     0.133690000000     0.133690000000    -0.307134   
O        O      0.572270000000     0.866310000000     0.866310000000    -0.307134   
O        O      0.866310000000     0.572270000000     0.695110000000    -0.307134   
O        O      0.695110000000     0.866310000000     0.866310000000    -0.307134   
O        O      0.866310000000     0.695110000000     0.572270000000    -0.307134   
O        O      0.866310000000     0.866310000000     0.695110000000    -0.307134   
O        O      0.695110000000     0.572270000000     0.866310000000    -0.307134   
O        O      0.866310000000     0.866310000000     0.572270000000    -0.307134   
O        O      0.572270000000     0.695110000000     0.866310000000    -0.307134   
O        O      0.695110000000     0.866310000000     0.572270000000    -0.307134   
O        O      0.866310000000     0.572270000000     0.866310000000    -0.307134   
O        O      0.572270000000     0.866310000000     0.695110000000    -0.307134   
O        O      0.866310000000     0.695110000000     0.866310000000    -0.307134   


