data_LAWGIA_original

_audit_creation_method RASPA-1.0
_audit_creation_date 2022-1-28
_audit_author_name 'Felipe Lopes de Oliveira <felipe.lopes.oliveira@ibm.com>'

_cell_length_a    18.2943
_cell_length_b    18.2943
_cell_length_c    18.2943
_cell_angle_alpha 60
_cell_angle_beta  60
_cell_angle_gamma 60
_cell_volume      4329.45

_symmetry_cell_setting          triclinic
_symmetry_space_group_name_Hall 'P 1'
_symmetry_space_group_name_H-M  'P 1'
_symmetry_Int_Tables_number     1

_symmetry_equiv_pos_as_xyz 'x,y,z'

loop_
_atom_site_label
_atom_site_type_symbol
_atom_site_fract_x
_atom_site_fract_y
_atom_site_fract_z
_atom_site_charge
Zn       Zn     0.206600000000     0.380200000000     0.206600000000     0.474809   
Zn       Zn     0.380200000000     0.206600000000     0.206600000000     0.474809   
Zn       Zn     0.206600000000     0.206600000000     0.206600000000     0.474809   
Zn       Zn     0.206600000000     0.206600000000     0.380200000000     0.474809   
Zn       Zn     0.619800000000     0.793400000000     0.793400000000     0.474809   
Zn       Zn     0.793400000000     0.619800000000     0.793400000000     0.474809   
Zn       Zn     0.793400000000     0.793400000000     0.793400000000     0.474809   
Zn       Zn     0.793400000000     0.793400000000     0.619800000000     0.474809   
H        H      0.045100000000     0.565500000000     0.045100000000     0.0600654  
H        H      0.565500000000     0.045100000000     0.344300000000     0.0600654  
H        H      0.045100000000     0.344300000000     0.045100000000     0.0600654  
H        H      0.344300000000     0.045100000000     0.565500000000     0.0600654  
H        H      0.045100000000     0.045100000000     0.344300000000     0.0600654  
H        H      0.565500000000     0.344300000000     0.045100000000     0.0600654  
H        H      0.045100000000     0.045100000000     0.565500000000     0.0600654  
H        H      0.344300000000     0.565500000000     0.045100000000     0.0600654  
H        H      0.045100000000     0.344300000000     0.565500000000     0.0600654  
H        H      0.565500000000     0.045100000000     0.045100000000     0.0600654  
H        H      0.045100000000     0.565500000000     0.344300000000     0.0600654  
H        H      0.344300000000     0.045100000000     0.045100000000     0.0600654  
H        H      0.434500000000     0.954900000000     0.954900000000     0.0600654  
H        H      0.954900000000     0.434500000000     0.655700000000     0.0600654  
H        H      0.655700000000     0.954900000000     0.954900000000     0.0600654  
H        H      0.954900000000     0.655700000000     0.434500000000     0.0600654  
H        H      0.954900000000     0.954900000000     0.655700000000     0.0600654  
H        H      0.655700000000     0.434500000000     0.954900000000     0.0600654  
H        H      0.954900000000     0.954900000000     0.434500000000     0.0600654  
H        H      0.434500000000     0.655700000000     0.954900000000     0.0600654  
H        H      0.655700000000     0.954900000000     0.434500000000     0.0600654  
H        H      0.954900000000     0.434500000000     0.954900000000     0.0600654  
H        H      0.434500000000     0.954900000000     0.655700000000     0.0600654  
H        H      0.954900000000     0.655700000000     0.954900000000     0.0600654  
C        C      0.026750000000     0.538890000000     0.026750000000     0.0581374  
C        C      0.538890000000     0.026750000000     0.407610000000     0.0581374  
C        C      0.026750000000     0.407610000000     0.026750000000     0.0581374  
C        C      0.407610000000     0.026750000000     0.538890000000     0.0581374  
C        C      0.026750000000     0.026750000000     0.407610000000     0.0581374  
C        C      0.538890000000     0.407610000000     0.026750000000     0.0581374  
C        C      0.026750000000     0.026750000000     0.538890000000     0.0581374  
C        C      0.407610000000     0.538890000000     0.026750000000     0.0581374  
C        C      0.026750000000     0.407610000000     0.538890000000     0.0581374  
C        C      0.538890000000     0.026750000000     0.026750000000     0.0581374  
C        C      0.026750000000     0.538890000000     0.407610000000     0.0581374  
C        C      0.407610000000     0.026750000000     0.026750000000     0.0581374  
C        C      0.461110000000     0.973250000000     0.973250000000     0.0581374  
C        C      0.973250000000     0.461110000000     0.592390000000     0.0581374  
C        C      0.592390000000     0.973250000000     0.973250000000     0.0581374  
C        C      0.973250000000     0.592390000000     0.461110000000     0.0581374  
C        C      0.973250000000     0.973250000000     0.592390000000     0.0581374  
C        C      0.592390000000     0.461110000000     0.973250000000     0.0581374  
C        C      0.973250000000     0.973250000000     0.461110000000     0.0581374  
C        C      0.461110000000     0.592390000000     0.973250000000     0.0581374  
C        C      0.592390000000     0.973250000000     0.461110000000     0.0581374  
C        C      0.973250000000     0.461110000000     0.973250000000     0.0581374  
C        C      0.461110000000     0.973250000000     0.592390000000     0.0581374  
C        C      0.973250000000     0.592390000000     0.973250000000     0.0581374  
C        C      0.111470000000     0.388530000000     0.111470000000     0.0581374  
C        C      0.053740000000     0.446260000000     0.053740000000     0.0581374  
C        C      0.388530000000     0.111470000000     0.388530000000     0.0581374  
C        C      0.446260000000     0.053740000000     0.446260000000     0.0581374  
C        C      0.111470000000     0.111470000000     0.388530000000     0.0581374  
C        C      0.053740000000     0.053740000000     0.446260000000     0.0581374  
C        C      0.388530000000     0.388530000000     0.111470000000     0.0581374  
C        C      0.446260000000     0.446260000000     0.053740000000     0.0581374  
C        C      0.111470000000     0.388530000000     0.388530000000     0.0581374  
C        C      0.053740000000     0.446260000000     0.446260000000     0.0581374  
C        C      0.388530000000     0.111470000000     0.111470000000     0.0581374  
C        C      0.446260000000     0.053740000000     0.053740000000     0.0581374  
C        C      0.611470000000     0.888530000000     0.888530000000     0.0581374  
C        C      0.553740000000     0.946260000000     0.946260000000     0.0581374  
C        C      0.888530000000     0.611470000000     0.611470000000     0.0581374  
C        C      0.946260000000     0.553740000000     0.553740000000     0.0581374  
C        C      0.888530000000     0.888530000000     0.611470000000     0.0581374  
C        C      0.946260000000     0.946260000000     0.553740000000     0.0581374  
C        C      0.611470000000     0.611470000000     0.888530000000     0.0581374  
C        C      0.553740000000     0.553740000000     0.946260000000     0.0581374  
C        C      0.611470000000     0.888530000000     0.611470000000     0.0581374  
C        C      0.553740000000     0.946260000000     0.553740000000     0.0581374  
C        C      0.888530000000     0.611470000000     0.888530000000     0.0581374  
C        C      0.946260000000     0.553740000000     0.946260000000     0.0581374  
O        O      0.250000000000     0.250000000000     0.250000000000    -0.308871   
O        O      0.750000000000     0.750000000000     0.750000000000    -0.308871   
O        O      0.133720000000     0.427640000000     0.133720000000    -0.308871   
O        O      0.427640000000     0.133720000000     0.304920000000    -0.308871   
O        O      0.133720000000     0.304920000000     0.133720000000    -0.308871   
O        O      0.304920000000     0.133720000000     0.427640000000    -0.308871   
O        O      0.133720000000     0.133720000000     0.304920000000    -0.308871   
O        O      0.427640000000     0.304920000000     0.133720000000    -0.308871   
O        O      0.133720000000     0.133720000000     0.427640000000    -0.308871   
O        O      0.304920000000     0.427640000000     0.133720000000    -0.308871   
O        O      0.133720000000     0.304920000000     0.427640000000    -0.308871   
O        O      0.427640000000     0.133720000000     0.133720000000    -0.308871   
O        O      0.133720000000     0.427640000000     0.304920000000    -0.308871   
O        O      0.304920000000     0.133720000000     0.133720000000    -0.308871   
O        O      0.572360000000     0.866280000000     0.866280000000    -0.308871   
O        O      0.866280000000     0.572360000000     0.695080000000    -0.308871   
O        O      0.695080000000     0.866280000000     0.866280000000    -0.308871   
O        O      0.866280000000     0.695080000000     0.572360000000    -0.308871   
O        O      0.866280000000     0.866280000000     0.695080000000    -0.308871   
O        O      0.695080000000     0.572360000000     0.866280000000    -0.308871   
O        O      0.866280000000     0.866280000000     0.572360000000    -0.308871   
O        O      0.572360000000     0.695080000000     0.866280000000    -0.308871   
O        O      0.695080000000     0.866280000000     0.572360000000    -0.308871   
O        O      0.866280000000     0.572360000000     0.866280000000    -0.308871   
O        O      0.572360000000     0.866280000000     0.695080000000    -0.308871   
O        O      0.866280000000     0.695080000000     0.866280000000    -0.308871   


