data_LAZJAZ_original

_audit_creation_method RASPA-1.0
_audit_creation_date 2022-1-29
_audit_author_name 'Felipe Lopes de Oliveira <felipe.lopes.oliveira@ibm.com>'

_cell_length_a    9.0056
_cell_length_b    10.7263
_cell_length_c    12.9899
_cell_angle_alpha 104.047
_cell_angle_beta  90
_cell_angle_gamma 90
_cell_volume      1217.26

_symmetry_cell_setting          triclinic
_symmetry_space_group_name_Hall 'P 1'
_symmetry_space_group_name_H-M  'P 1'
_symmetry_Int_Tables_number     1

_symmetry_equiv_pos_as_xyz 'x,y,z'

loop_
_atom_site_label
_atom_site_type_symbol
_atom_site_fract_x
_atom_site_fract_y
_atom_site_fract_z
_atom_site_charge
Zn       Zn     0.619260000000     0.500000000000     0.000000000000     0.436644   
Zn       Zn     0.934460000000     0.000000000000     0.500000000000     0.436644   
H        H      0.775800000000     0.179500000000     0.386800000000     0.0752266  
H        H      0.602800000000     0.170000000000     0.256300000000     0.0752266  
H        H      0.619500000000     0.787500000000     0.201300000000     0.0752266  
H        H      0.774500000000     0.810100000000     0.340700000000     0.0752266  
H        H      0.511700000000     0.115300000000     0.077300000000     0.0752266  
H        H      0.377300000000     0.108100000000     0.153400000000     0.0752266  
H        H      0.302600000000     0.821600000000     0.029700000000     0.0752266  
H        H      0.200300000000     0.929100000000     0.098300000000     0.0752266  
H        H      0.900300000000     0.808800000000     0.843900000000     0.0752266  
H        H      0.707700000000     0.680800000000     0.866000000000     0.0752266  
H        H      0.887900000000     0.619000000000     0.118300000000     0.0752266  
H        H      0.089000000000     0.742400000000     0.102100000000     0.0752266  
H        H      0.311500000000     0.295700000000     0.755700000000     0.0752266  
H        H      0.992400000000     0.407000000000     0.583100000000     0.0752266  
H        H      0.237700000000     0.667600000000     0.782600000000     0.0752266  
H        H      0.775800000000     0.820500000000     0.613200000000     0.0752266  
H        H      0.602800000000     0.830000000000     0.743700000000     0.0752266  
H        H      0.619500000000     0.212500000000     0.798700000000     0.0752266  
H        H      0.774500000000     0.189900000000     0.659300000000     0.0752266  
H        H      0.511700000000     0.884700000000     0.922700000000     0.0752266  
H        H      0.377300000000     0.891900000000     0.846600000000     0.0752266  
H        H      0.302600000000     0.178400000000     0.970300000000     0.0752266  
H        H      0.200300000000     0.070900000000     0.901700000000     0.0752266  
H        H      0.900300000000     0.191200000000     0.156100000000     0.0752266  
H        H      0.707700000000     0.319200000000     0.134000000000     0.0752266  
H        H      0.887900000000     0.381000000000     0.881700000000     0.0752266  
H        H      0.089000000000     0.257600000000     0.897900000000     0.0752266  
H        H      0.311500000000     0.704300000000     0.244300000000     0.0752266  
H        H      0.992400000000     0.593000000000     0.416900000000     0.0752266  
H        H      0.237700000000     0.332400000000     0.217400000000     0.0752266  
C        C      0.742200000000     0.099300000000     0.349400000000     0.0325753  
C        C      0.640800000000     0.094900000000     0.269800000000     0.0325753  
C        C      0.596300000000     0.974700000000     0.209600000000     0.0325753  
C        C      0.648700000000     0.869200000000     0.238400000000     0.0325753  
C        C      0.743200000000     0.883600000000     0.320900000000     0.0325753  
C        C      0.437600000000     0.058900000000     0.095800000000     0.0325753  
C        C      0.243300000000     0.896800000000     0.028500000000     0.0325753  
C        C      0.018300000000     0.788400000000     0.969700000000     0.0325753  
C        C      0.901100000000     0.769600000000     0.900400000000     0.0325753  
C        C      0.785700000000     0.693200000000     0.914300000000     0.0325753  
C        C      0.891400000000     0.656900000000     0.061100000000     0.0325753  
C        C      0.012500000000     0.731300000000     0.052500000000     0.0325753  
C        C      0.421700000000     0.523500000000     0.856700000000     0.0325753  
C        C      0.295700000000     0.487600000000     0.779800000000     0.0325753  
C        C      0.259100000000     0.361000000000     0.736100000000     0.0325753  
C        C      0.145400000000     0.330800000000     0.663700000000     0.0325753  
C        C      0.068300000000     0.427500000000     0.632900000000     0.0325753  
C        C      0.215900000000     0.582200000000     0.750900000000     0.0325753  
C        C      0.104100000000     0.191400000000     0.616800000000     0.0325753  
C        C      0.104700000000     0.554900000000     0.676500000000     0.0325753  
C        C      0.742200000000     0.900700000000     0.650600000000     0.0325753  
C        C      0.640800000000     0.905100000000     0.730200000000     0.0325753  
C        C      0.596300000000     0.025300000000     0.790400000000     0.0325753  
C        C      0.648700000000     0.130800000000     0.761600000000     0.0325753  
C        C      0.743200000000     0.116400000000     0.679100000000     0.0325753  
C        C      0.437600000000     0.941100000000     0.904200000000     0.0325753  
C        C      0.243300000000     0.103200000000     0.971500000000     0.0325753  
C        C      0.018300000000     0.211600000000     0.030300000000     0.0325753  
C        C      0.901100000000     0.230400000000     0.099600000000     0.0325753  
C        C      0.785700000000     0.306800000000     0.085700000000     0.0325753  
C        C      0.891400000000     0.343100000000     0.938900000000     0.0325753  
C        C      0.012500000000     0.268700000000     0.947500000000     0.0325753  
C        C      0.421700000000     0.476500000000     0.143300000000     0.0325753  
C        C      0.295700000000     0.512400000000     0.220200000000     0.0325753  
C        C      0.259100000000     0.639000000000     0.263900000000     0.0325753  
C        C      0.145400000000     0.669200000000     0.336300000000     0.0325753  
C        C      0.068300000000     0.572500000000     0.367100000000     0.0325753  
C        C      0.215900000000     0.417800000000     0.249100000000     0.0325753  
C        C      0.104100000000     0.808600000000     0.383200000000     0.0325753  
C        C      0.104700000000     0.445100000000     0.323500000000     0.0325753  
C        C      0.341000000000     0.000000000000     0.000000000000     0.0325753  
N        N      0.794800000000     0.997600000000     0.376200000000    -0.209973   
N        N      0.779500000000     0.635600000000     0.993800000000    -0.209973   
N        N      0.794800000000     0.002400000000     0.623800000000    -0.209973   
N        N      0.779500000000     0.364400000000     0.006200000000    -0.209973   
O        O      0.444000000000     0.635100000000     0.901300000000    -0.258985   
O        O      0.503500000000     0.433200000000     0.872000000000    -0.258985   
O        O      0.013900000000     0.172100000000     0.540200000000    -0.258985   
O        O      0.153500000000     0.109100000000     0.654600000000    -0.258985   
O        O      0.128900000000     0.863300000000     0.951300000000    -0.258985   
O        O      0.506200000000     0.954500000000     0.125800000000    -0.258985   
O        O      0.029400000000     0.650000000000     0.647300000000    -0.258985   
O        O      0.444000000000     0.364900000000     0.098700000000    -0.258985   
O        O      0.503500000000     0.566800000000     0.128000000000    -0.258985   
O        O      0.013900000000     0.827900000000     0.459800000000    -0.258985   
O        O      0.153500000000     0.890900000000     0.345400000000    -0.258985   
O        O      0.128900000000     0.136700000000     0.048700000000    -0.258985   
O        O      0.506200000000     0.045500000000     0.874200000000    -0.258985   
O        O      0.029400000000     0.350000000000     0.352700000000    -0.258985   


