data_LEGGIO_original

_audit_creation_method RASPA-1.0
_audit_creation_date 2022-1-29
_audit_author_name 'Felipe Lopes de Oliveira <felipe.lopes.oliveira@ibm.com>'

_cell_length_a    13.475
_cell_length_b    13.509
_cell_length_c    26.949
_cell_angle_alpha 90
_cell_angle_beta  90
_cell_angle_gamma 95.18
_cell_volume      4885.59

_symmetry_cell_setting          triclinic
_symmetry_space_group_name_Hall 'P 1'
_symmetry_space_group_name_H-M  'P 1'
_symmetry_Int_Tables_number     1

_symmetry_equiv_pos_as_xyz 'x,y,z'

loop_
_atom_site_label
_atom_site_type_symbol
_atom_site_fract_x
_atom_site_fract_y
_atom_site_fract_z
_atom_site_charge
Zn       Zn     0.221880000000     0.862370000000     0.975980000000     0.380969   
Zn       Zn     0.632890000000     0.742620000000     0.945720000000     0.380969   
Zn       Zn     0.257650000000     0.684310000000     0.075750000000     0.380969   
Zn       Zn     0.188910000000     0.293130000000     0.956080000000     0.380969   
Zn       Zn     0.278120000000     0.637630000000     0.475980000000     0.380969   
Zn       Zn     0.867110000000     0.757380000000     0.445720000000     0.380969   
Zn       Zn     0.242350000000     0.815690000000     0.575750000000     0.380969   
Zn       Zn     0.311090000000     0.206870000000     0.456080000000     0.380969   
Zn       Zn     0.778120000000     0.137630000000     0.024020000000     0.380969   
Zn       Zn     0.367110000000     0.257380000000     0.054280000000     0.380969   
Zn       Zn     0.742350000000     0.315690000000     0.924250000000     0.380969   
Zn       Zn     0.811090000000     0.706870000000     0.043920000000     0.380969   
Zn       Zn     0.721880000000     0.362370000000     0.524020000000     0.380969   
Zn       Zn     0.132890000000     0.242620000000     0.554280000000     0.380969   
Zn       Zn     0.757650000000     0.184310000000     0.424250000000     0.380969   
Zn       Zn     0.688910000000     0.793130000000     0.543920000000     0.380969   
H        H      0.021200000000     0.619700000000     0.078400000000     0.0378279  
H        H      0.638700000000     0.523600000000     0.903400000000     0.0378279  
H        H      0.826400000000     0.475900000000     0.010100000000     0.0378279  
H        H      0.482700000000     0.651700000000     0.031400000000     0.0378279  
H        H      0.319800000000     0.020100000000     0.055000000000     0.0378279  
H        H      0.120300000000     0.059200000000     0.952500000000     0.0378279  
H        H      0.444700000000     0.863100000000     0.936200000000     0.0378279  
H        H      0.985700000000     0.802600000000     0.968400000000     0.0378279  
H        H      0.599600000000     0.646700000000     0.791600000000     0.0378279  
H        H      0.372600000000     0.885200000000     0.736600000000     0.0378279  
H        H      0.609600000000     0.635800000000     0.704600000000     0.0378279  
H        H      0.355000000000     0.896700000000     0.823200000000     0.0378279  
H        H      0.074000000000     0.892600000000     0.722100000000     0.0378279  
H        H      0.607200000000     0.945700000000     0.779500000000     0.0378279  
H        H      0.058600000000     0.906800000000     0.808500000000     0.0378279  
H        H      0.632200000000     0.933900000000     0.694200000000     0.0378279  
H        H      0.478800000000     0.880300000000     0.578400000000     0.0378279  
H        H      0.861300000000     0.976400000000     0.403400000000     0.0378279  
H        H      0.673600000000     0.024100000000     0.510100000000     0.0378279  
H        H      0.017300000000     0.848300000000     0.531400000000     0.0378279  
H        H      0.180200000000     0.479900000000     0.555000000000     0.0378279  
H        H      0.379700000000     0.440800000000     0.452500000000     0.0378279  
H        H      0.055300000000     0.636900000000     0.436200000000     0.0378279  
H        H      0.514300000000     0.697400000000     0.468400000000     0.0378279  
H        H      0.900400000000     0.853300000000     0.291600000000     0.0378279  
H        H      0.127400000000     0.614800000000     0.236600000000     0.0378279  
H        H      0.890400000000     0.864200000000     0.204600000000     0.0378279  
H        H      0.145000000000     0.603300000000     0.323200000000     0.0378279  
H        H      0.426000000000     0.607400000000     0.222100000000     0.0378279  
H        H      0.892800000000     0.554300000000     0.279500000000     0.0378279  
H        H      0.441400000000     0.593200000000     0.308500000000     0.0378279  
H        H      0.867800000000     0.566100000000     0.194200000000     0.0378279  
H        H      0.978800000000     0.380300000000     0.921600000000     0.0378279  
H        H      0.361300000000     0.476400000000     0.096600000000     0.0378279  
H        H      0.173600000000     0.524100000000     0.989900000000     0.0378279  
H        H      0.517300000000     0.348300000000     0.968600000000     0.0378279  
H        H      0.680200000000     0.979900000000     0.945000000000     0.0378279  
H        H      0.879700000000     0.940800000000     0.047500000000     0.0378279  
H        H      0.555300000000     0.136900000000     0.063800000000     0.0378279  
H        H      0.014300000000     0.197400000000     0.031600000000     0.0378279  
H        H      0.400400000000     0.353300000000     0.208400000000     0.0378279  
H        H      0.627400000000     0.114800000000     0.263400000000     0.0378279  
H        H      0.390400000000     0.364200000000     0.295400000000     0.0378279  
H        H      0.645000000000     0.103300000000     0.176800000000     0.0378279  
H        H      0.926000000000     0.107400000000     0.277900000000     0.0378279  
H        H      0.392800000000     0.054300000000     0.220500000000     0.0378279  
H        H      0.941400000000     0.093200000000     0.191500000000     0.0378279  
H        H      0.367800000000     0.066100000000     0.305800000000     0.0378279  
H        H      0.521200000000     0.119700000000     0.421600000000     0.0378279  
H        H      0.138700000000     0.023600000000     0.596600000000     0.0378279  
H        H      0.326400000000     0.975900000000     0.489900000000     0.0378279  
H        H      0.982700000000     0.151700000000     0.468600000000     0.0378279  
H        H      0.819800000000     0.520100000000     0.445000000000     0.0378279  
H        H      0.620300000000     0.559200000000     0.547500000000     0.0378279  
H        H      0.944700000000     0.363100000000     0.563800000000     0.0378279  
H        H      0.485700000000     0.302600000000     0.531600000000     0.0378279  
H        H      0.099600000000     0.146700000000     0.708400000000     0.0378279  
H        H      0.872600000000     0.385200000000     0.763400000000     0.0378279  
H        H      0.109600000000     0.135800000000     0.795400000000     0.0378279  
H        H      0.855000000000     0.396700000000     0.676800000000     0.0378279  
H        H      0.574000000000     0.392600000000     0.777900000000     0.0378279  
H        H      0.107200000000     0.445700000000     0.720500000000     0.0378279  
H        H      0.558600000000     0.406800000000     0.691500000000     0.0378279  
H        H      0.132200000000     0.433900000000     0.805800000000     0.0378279  
C        C      0.205100000000     0.898900000000     0.823500000000     0.070227   
C        C      0.034500000000     0.666000000000     0.052200000000     0.070227   
C        C      0.680200000000     0.532200000000     0.931900000000     0.070227   
C        C      0.781500000000     0.506900000000     0.989270000000     0.070227   
C        C      0.454300000000     0.703300000000     0.013960000000     0.070227   
C        C      0.223500000000     0.883700000000     0.721000000000     0.070227   
C        C      0.277000000000     0.050300000000     0.032730000000     0.070227   
C        C      0.169500000000     0.071500000000     0.977500000000     0.070227   
C        C      0.433900000000     0.816600000000     0.962600000000     0.070227   
C        C      0.234100000000     0.866200000000     0.666400000000     0.070227   
C        C      0.015300000000     0.764300000000     0.993100000000     0.070227   
C        C      0.604200000000     0.798200000000     0.794450000000     0.070227   
C        C      0.620000000000     0.783500000000     0.691600000000     0.070227   
C        C      0.601200000000     0.805400000000     0.849600000000     0.070227   
C        C      0.633300000000     0.772800000000     0.636300000000     0.070227   
C        C      0.604200000000     0.705400000000     0.771900000000     0.070227   
C        C      0.308400000000     0.887500000000     0.751000000000     0.070227   
C        C      0.611100000000     0.699100000000     0.720100000000     0.070227   
C        C      0.297700000000     0.894700000000     0.802500000000     0.070227   
C        C      0.131400000000     0.892300000000     0.742500000000     0.070227   
C        C      0.610800000000     0.882300000000     0.764700000000     0.070227   
C        C      0.121900000000     0.900400000000     0.794000000000     0.070227   
C        C      0.193100000000     0.895000000000     0.879800000000     0.070227   
C        C      0.622500000000     0.875300000000     0.713800000000     0.070227   
C        C      0.294900000000     0.601100000000     0.323500000000     0.070227   
C        C      0.465500000000     0.834000000000     0.552200000000     0.070227   
C        C      0.819800000000     0.967800000000     0.431900000000     0.070227   
C        C      0.718500000000     0.993100000000     0.489270000000     0.070227   
C        C      0.045700000000     0.796700000000     0.513960000000     0.070227   
C        C      0.276500000000     0.616300000000     0.221000000000     0.070227   
C        C      0.223000000000     0.449700000000     0.532730000000     0.070227   
C        C      0.330500000000     0.428500000000     0.477500000000     0.070227   
C        C      0.066100000000     0.683400000000     0.462600000000     0.070227   
C        C      0.265900000000     0.633800000000     0.166400000000     0.070227   
C        C      0.484700000000     0.735700000000     0.493100000000     0.070227   
C        C      0.895800000000     0.701800000000     0.294450000000     0.070227   
C        C      0.880000000000     0.716500000000     0.191600000000     0.070227   
C        C      0.898800000000     0.694600000000     0.349600000000     0.070227   
C        C      0.866700000000     0.727200000000     0.136300000000     0.070227   
C        C      0.895800000000     0.794600000000     0.271900000000     0.070227   
C        C      0.191600000000     0.612500000000     0.251000000000     0.070227   
C        C      0.888900000000     0.800900000000     0.220100000000     0.070227   
C        C      0.202300000000     0.605300000000     0.302500000000     0.070227   
C        C      0.368600000000     0.607700000000     0.242500000000     0.070227   
C        C      0.889200000000     0.617700000000     0.264700000000     0.070227   
C        C      0.378100000000     0.599600000000     0.294000000000     0.070227   
C        C      0.306900000000     0.605000000000     0.379800000000     0.070227   
C        C      0.877500000000     0.624700000000     0.213800000000     0.070227   
C        C      0.794900000000     0.101100000000     0.176500000000     0.070227   
C        C      0.965500000000     0.334000000000     0.947800000000     0.070227   
C        C      0.319800000000     0.467800000000     0.068100000000     0.070227   
C        C      0.218500000000     0.493100000000     0.010730000000     0.070227   
C        C      0.545700000000     0.296700000000     0.986040000000     0.070227   
C        C      0.776500000000     0.116300000000     0.279000000000     0.070227   
C        C      0.723000000000     0.949700000000     0.967270000000     0.070227   
C        C      0.830500000000     0.928500000000     0.022500000000     0.070227   
C        C      0.566100000000     0.183400000000     0.037400000000     0.070227   
C        C      0.765900000000     0.133800000000     0.333600000000     0.070227   
C        C      0.984700000000     0.235700000000     0.006900000000     0.070227   
C        C      0.395800000000     0.201800000000     0.205550000000     0.070227   
C        C      0.380000000000     0.216500000000     0.308400000000     0.070227   
C        C      0.398800000000     0.194600000000     0.150400000000     0.070227   
C        C      0.366700000000     0.227200000000     0.363700000000     0.070227   
C        C      0.395800000000     0.294600000000     0.228100000000     0.070227   
C        C      0.691600000000     0.112500000000     0.249000000000     0.070227   
C        C      0.388900000000     0.300900000000     0.279900000000     0.070227   
C        C      0.702300000000     0.105300000000     0.197500000000     0.070227   
C        C      0.868600000000     0.107700000000     0.257500000000     0.070227   
C        C      0.389200000000     0.117700000000     0.235300000000     0.070227   
C        C      0.878100000000     0.099600000000     0.206000000000     0.070227   
C        C      0.806900000000     0.105000000000     0.120200000000     0.070227   
C        C      0.377500000000     0.124700000000     0.286200000000     0.070227   
C        C      0.705100000000     0.398900000000     0.676500000000     0.070227   
C        C      0.534500000000     0.166000000000     0.447800000000     0.070227   
C        C      0.180200000000     0.032200000000     0.568100000000     0.070227   
C        C      0.281500000000     0.006900000000     0.510730000000     0.070227   
C        C      0.954300000000     0.203300000000     0.486040000000     0.070227   
C        C      0.723500000000     0.383700000000     0.779000000000     0.070227   
C        C      0.777000000000     0.550300000000     0.467270000000     0.070227   
C        C      0.669500000000     0.571500000000     0.522500000000     0.070227   
C        C      0.933900000000     0.316600000000     0.537400000000     0.070227   
C        C      0.734100000000     0.366200000000     0.833600000000     0.070227   
C        C      0.515300000000     0.264300000000     0.506900000000     0.070227   
C        C      0.104200000000     0.298200000000     0.705550000000     0.070227   
C        C      0.120000000000     0.283500000000     0.808400000000     0.070227   
C        C      0.101200000000     0.305400000000     0.650400000000     0.070227   
C        C      0.133300000000     0.272800000000     0.863700000000     0.070227   
C        C      0.104200000000     0.205400000000     0.728100000000     0.070227   
C        C      0.808400000000     0.387500000000     0.749000000000     0.070227   
C        C      0.111100000000     0.199100000000     0.779900000000     0.070227   
C        C      0.797700000000     0.394700000000     0.697500000000     0.070227   
C        C      0.631400000000     0.392300000000     0.757500000000     0.070227   
C        C      0.110800000000     0.382300000000     0.735300000000     0.070227   
C        C      0.621900000000     0.400400000000     0.706000000000     0.070227   
C        C      0.693100000000     0.395000000000     0.620200000000     0.070227   
C        C      0.122500000000     0.375300000000     0.786200000000     0.070227   
N        N      0.499400000000     0.752900000000     0.975800000000    -0.142215   
N        N      0.214000000000     0.999100000000     0.001620000000    -0.142215   
N        N      0.736900000000     0.463100000000     0.949060000000    -0.142215   
N        N      0.366000000000     0.733900000000     0.024760000000    -0.142215   
N        N      0.125700000000     0.702100000000     0.038940000000    -0.142215   
N        N      0.688900000000     0.614200000000     0.959450000000    -0.142215   
N        N      0.352700000000     0.807800000000     0.990090000000    -0.142215   
N        N      0.273000000000     0.146600000000     0.029100000000    -0.142215   
N        N      0.202800000000     0.160200000000     0.992880000000    -0.142215   
N        N      0.962700000000     0.702200000000     0.024420000000    -0.142215   
N        N      0.755700000000     0.597400000000     0.996420000000    -0.142215   
N        N      0.113000000000     0.766300000000     0.000350000000    -0.142215   
N        N      0.000600000000     0.747100000000     0.475800000000    -0.142215   
N        N      0.286000000000     0.500900000000     0.501620000000    -0.142215   
N        N      0.763100000000     0.036900000000     0.449060000000    -0.142215   
N        N      0.134000000000     0.766100000000     0.524760000000    -0.142215   
N        N      0.374300000000     0.797900000000     0.538940000000    -0.142215   
N        N      0.811100000000     0.885800000000     0.459450000000    -0.142215   
N        N      0.147300000000     0.692200000000     0.490090000000    -0.142215   
N        N      0.227000000000     0.353400000000     0.529100000000    -0.142215   
N        N      0.297200000000     0.339800000000     0.492880000000    -0.142215   
N        N      0.537300000000     0.797800000000     0.524420000000    -0.142215   
N        N      0.744300000000     0.902600000000     0.496420000000    -0.142215   
N        N      0.387000000000     0.733700000000     0.500350000000    -0.142215   
N        N      0.500600000000     0.247100000000     0.024200000000    -0.142215   
N        N      0.786000000000     0.000900000000     0.998380000000    -0.142215   
N        N      0.263100000000     0.536900000000     0.050940000000    -0.142215   
N        N      0.634000000000     0.266100000000     0.975240000000    -0.142215   
N        N      0.874300000000     0.297900000000     0.961060000000    -0.142215   
N        N      0.311100000000     0.385800000000     0.040550000000    -0.142215   
N        N      0.647300000000     0.192200000000     0.009910000000    -0.142215   
N        N      0.727000000000     0.853400000000     0.970900000000    -0.142215   
N        N      0.797200000000     0.839800000000     0.007120000000    -0.142215   
N        N      0.037300000000     0.297800000000     0.975580000000    -0.142215   
N        N      0.244300000000     0.402600000000     0.003580000000    -0.142215   
N        N      0.887000000000     0.233700000000     0.999650000000    -0.142215   
N        N      0.999400000000     0.252900000000     0.524200000000    -0.142215   
N        N      0.714000000000     0.499100000000     0.498380000000    -0.142215   
N        N      0.236900000000     0.963100000000     0.550940000000    -0.142215   
N        N      0.866000000000     0.233900000000     0.475240000000    -0.142215   
N        N      0.625700000000     0.202100000000     0.461060000000    -0.142215   
N        N      0.188900000000     0.114200000000     0.540550000000    -0.142215   
N        N      0.852700000000     0.307800000000     0.509910000000    -0.142215   
N        N      0.773000000000     0.646600000000     0.470900000000    -0.142215   
N        N      0.702800000000     0.660200000000     0.507120000000    -0.142215   
N        N      0.462700000000     0.202200000000     0.475580000000    -0.142215   
N        N      0.255700000000     0.097400000000     0.503580000000    -0.142215   
N        N      0.613000000000     0.266300000000     0.499650000000    -0.142215   
O        O      0.268700000000     0.890400000000     0.904800000000    -0.263499   
O        O      0.625900000000     0.728900000000     0.873450000000    -0.263499   
O        O      0.155200000000     0.844300000000     0.640660000000    -0.263499   
O        O      0.318600000000     0.871100000000     0.646490000000    -0.263499   
O        O      0.667500000000     0.851200000000     0.612580000000    -0.263499   
O        O      0.579900000000     0.881800000000     0.871010000000    -0.263499   
O        O      0.612700000000     0.692300000000     0.615890000000    -0.263499   
O        O      0.105300000000     0.900200000000     0.899000000000    -0.263499   
O        O      0.231300000000     0.609600000000     0.404800000000    -0.263499   
O        O      0.874100000000     0.771100000000     0.373450000000    -0.263499   
O        O      0.344800000000     0.655700000000     0.140660000000    -0.263499   
O        O      0.181400000000     0.628900000000     0.146490000000    -0.263499   
O        O      0.832500000000     0.648800000000     0.112580000000    -0.263499   
O        O      0.920100000000     0.618200000000     0.371010000000    -0.263499   
O        O      0.887300000000     0.807700000000     0.115890000000    -0.263499   
O        O      0.394700000000     0.599800000000     0.399000000000    -0.263499   
O        O      0.731300000000     0.109600000000     0.095200000000    -0.263499   
O        O      0.374100000000     0.271100000000     0.126550000000    -0.263499   
O        O      0.844800000000     0.155700000000     0.359340000000    -0.263499   
O        O      0.681400000000     0.128900000000     0.353510000000    -0.263499   
O        O      0.332500000000     0.148800000000     0.387420000000    -0.263499   
O        O      0.420100000000     0.118200000000     0.128990000000    -0.263499   
O        O      0.387300000000     0.307700000000     0.384110000000    -0.263499   
O        O      0.894700000000     0.099800000000     0.101000000000    -0.263499   
O        O      0.768700000000     0.390400000000     0.595200000000    -0.263499   
O        O      0.125900000000     0.228900000000     0.626550000000    -0.263499   
O        O      0.655200000000     0.344300000000     0.859340000000    -0.263499   
O        O      0.818600000000     0.371100000000     0.853510000000    -0.263499   
O        O      0.167500000000     0.351200000000     0.887420000000    -0.263499   
O        O      0.079900000000     0.381800000000     0.628990000000    -0.263499   
O        O      0.112700000000     0.192300000000     0.884110000000    -0.263499   
O        O      0.605300000000     0.400200000000     0.601000000000    -0.263499   


