data_LEGGEK_original

_audit_creation_method RASPA-1.0
_audit_creation_date 2022-1-31
_audit_author_name 'Felipe Lopes de Oliveira <felipe.lopes.oliveira@ibm.com>'

_cell_length_a    7.797
_cell_length_b    10.047
_cell_length_c    13.577
_cell_angle_alpha 110.18
_cell_angle_beta  105.46
_cell_angle_gamma 93.9
_cell_volume      947.001

_symmetry_cell_setting          triclinic
_symmetry_space_group_name_Hall 'P 1'
_symmetry_space_group_name_H-M  'P 1'
_symmetry_Int_Tables_number     1

_symmetry_equiv_pos_as_xyz 'x,y,z'

loop_
_atom_site_label
_atom_site_type_symbol
_atom_site_fract_x
_atom_site_fract_y
_atom_site_fract_z
_atom_site_charge
Zn       Zn     0.369180000000     0.122260000000     0.744780000000     0.370875   
Zn       Zn     0.630820000000     0.877740000000     0.255220000000     0.370875   
Zn       Zn     0.000000000000     0.500000000000     0.500000000000     0.370875   
Zn       Zn     0.500000000000     0.500000000000     0.500000000000     0.370875   
H        H      0.085000000000     0.842500000000     0.632200000000     0.0396322  
H        H      0.590200000000     0.857800000000     0.636700000000     0.0396322  
H        H      0.040100000000     0.266700000000     0.625600000000     0.0396322  
H        H      0.539000000000     0.270600000000     0.619700000000     0.0396322  
H        H      0.862300000000     0.055800000000     0.847200000000     0.0396322  
H        H      0.313000000000     0.002900000000     0.053200000000     0.0396322  
H        H      0.967800000000     0.290800000000     0.845300000000     0.0396322  
H        H      0.745000000000     0.571100000000     0.050900000000     0.0396322  
H        H      0.915000000000     0.157500000000     0.367800000000     0.0396322  
H        H      0.409800000000     0.142200000000     0.363300000000     0.0396322  
H        H      0.959900000000     0.733300000000     0.374400000000     0.0396322  
H        H      0.461000000000     0.729400000000     0.380300000000     0.0396322  
H        H      0.137700000000     0.944200000000     0.152800000000     0.0396322  
H        H      0.687000000000     0.997100000000     0.946800000000     0.0396322  
H        H      0.032200000000     0.709200000000     0.154700000000     0.0396322  
H        H      0.255000000000     0.428900000000     0.949100000000     0.0396322  
C        C      0.194900000000     0.815200000000     0.621300000000     0.0691783  
C        C      0.466500000000     0.823500000000     0.623900000000     0.0691783  
C        C      0.151500000000     0.288200000000     0.613500000000     0.0691783  
C        C      0.419500000000     0.290200000000     0.610300000000     0.0691783  
C        C      0.217700000000     0.075500000000     0.877900000000     0.0691783  
C        C      0.103900000000     0.036100000000     0.940600000000     0.0691783  
C        C      0.918200000000     0.033400000000     0.909400000000     0.0691783  
C        C      0.186400000000     0.002000000000     0.031700000000     0.0691783  
C        C      0.981200000000     0.375600000000     0.908000000000     0.0691783  
C        C      0.848100000000     0.542400000000     0.030300000000     0.0691783  
C        C      0.828500000000     0.417300000000     0.938000000000     0.0691783  
C        C      0.643300000000     0.328500000000     0.872400000000     0.0691783  
C        C      0.805100000000     0.184800000000     0.378700000000     0.0691783  
C        C      0.533500000000     0.176500000000     0.376100000000     0.0691783  
C        C      0.848500000000     0.711800000000     0.386500000000     0.0691783  
C        C      0.580500000000     0.709800000000     0.389700000000     0.0691783  
C        C      0.782300000000     0.924500000000     0.122100000000     0.0691783  
C        C      0.896100000000     0.963900000000     0.059400000000     0.0691783  
C        C      0.081800000000     0.966600000000     0.090600000000     0.0691783  
C        C      0.813600000000     0.998000000000     0.968300000000     0.0691783  
C        C      0.018800000000     0.624400000000     0.092000000000     0.0691783  
C        C      0.151900000000     0.457600000000     0.969700000000     0.0691783  
C        C      0.171500000000     0.582700000000     0.062000000000     0.0691783  
C        C      0.356700000000     0.671500000000     0.127600000000     0.0691783  
N        N      0.211400000000     0.681500000000     0.569700000000    -0.139709   
N        N      0.389300000000     0.685900000000     0.571400000000    -0.139709   
N        N      0.351100000000     0.909600000000     0.657100000000    -0.139709   
N        N      0.179300000000     0.378100000000     0.565000000000    -0.139709   
N        N      0.355400000000     0.378900000000     0.563000000000    -0.139709   
N        N      0.297800000000     0.230500000000     0.643800000000    -0.139709   
N        N      0.788600000000     0.318500000000     0.430300000000    -0.139709   
N        N      0.610700000000     0.314100000000     0.428600000000    -0.139709   
N        N      0.648900000000     0.090400000000     0.342900000000    -0.139709   
N        N      0.820700000000     0.621900000000     0.435000000000    -0.139709   
N        N      0.644600000000     0.621100000000     0.437000000000    -0.139709   
N        N      0.702200000000     0.769500000000     0.356200000000    -0.139709   
O        O      0.140700000000     0.093600000000     0.790200000000    -0.262673   
O        O      0.385200000000     0.092900000000     0.913000000000    -0.262673   
O        O      0.635800000000     0.203300000000     0.800900000000    -0.262673   
O        O      0.506800000000     0.380200000000     0.887400000000    -0.262673   
O        O      0.859300000000     0.906400000000     0.209800000000    -0.262673   
O        O      0.614800000000     0.907100000000     0.087000000000    -0.262673   
O        O      0.364200000000     0.796700000000     0.199100000000    -0.262673   
O        O      0.493200000000     0.619800000000     0.112600000000    -0.262673   


