data_LEMNOH_original

_audit_creation_method RASPA-1.0
_audit_creation_date 2022-1-29
_audit_author_name 'Felipe Lopes de Oliveira <felipe.lopes.oliveira@ibm.com>'

_cell_length_a    11.14
_cell_length_b    11.497
_cell_length_c    16.854
_cell_angle_alpha 90
_cell_angle_beta  90
_cell_angle_gamma 90
_cell_volume      2158.6

_symmetry_cell_setting          triclinic
_symmetry_space_group_name_Hall 'P 1'
_symmetry_space_group_name_H-M  'P 1'
_symmetry_Int_Tables_number     1

_symmetry_equiv_pos_as_xyz 'x,y,z'

loop_
_atom_site_label
_atom_site_type_symbol
_atom_site_fract_x
_atom_site_fract_y
_atom_site_fract_z
_atom_site_charge
Fe       Fe     0.000000000000     0.000000000000     0.000000000000     0.716076   
Fe       Fe     0.500000000000     0.000000000000     0.500000000000     0.716076   
Fe       Fe     0.000000000000     0.500000000000     0.500000000000     0.716076   
Fe       Fe     0.500000000000     0.500000000000     0.000000000000     0.716076   
C        C      0.177400000000     0.066500000000     0.247200000000     0.0619279  
C        C      0.130200000000     0.147600000000     0.298300000000     0.0619279  
C        C      0.169400000000     0.181200000000     0.374100000000     0.0619279  
C        C      0.125000000000     0.047300000000     0.169900000000     0.0619279  
C        C      0.281600000000     0.999300000000     0.263900000000     0.0619279  
C        C      0.017900000000     0.202100000000     0.271200000000     0.0619279  
C        C      0.770900000000     0.130700000000     0.087600000000     0.0619279  
C        C      0.112000000000     0.229700000000     0.916200000000     0.0619279  
C        C      0.322600000000     0.933500000000     0.747200000000     0.0619279  
C        C      0.369800000000     0.852400000000     0.798300000000     0.0619279  
C        C      0.330600000000     0.818800000000     0.874100000000     0.0619279  
C        C      0.375000000000     0.952700000000     0.669900000000     0.0619279  
C        C      0.218400000000     0.000700000000     0.763900000000     0.0619279  
C        C      0.482100000000     0.797900000000     0.771200000000     0.0619279  
C        C      0.729100000000     0.869300000000     0.587600000000     0.0619279  
C        C      0.388000000000     0.770300000000     0.416200000000     0.0619279  
C        C      0.822600000000     0.566500000000     0.252800000000     0.0619279  
C        C      0.869800000000     0.647600000000     0.201700000000     0.0619279  
C        C      0.830600000000     0.681200000000     0.125900000000     0.0619279  
C        C      0.875000000000     0.547300000000     0.330100000000     0.0619279  
C        C      0.718400000000     0.499300000000     0.236100000000     0.0619279  
C        C      0.982100000000     0.702100000000     0.228800000000     0.0619279  
C        C      0.229100000000     0.630700000000     0.412400000000     0.0619279  
C        C      0.888000000000     0.729700000000     0.583800000000     0.0619279  
C        C      0.677400000000     0.433500000000     0.752800000000     0.0619279  
C        C      0.630200000000     0.352400000000     0.701700000000     0.0619279  
C        C      0.669400000000     0.318800000000     0.625900000000     0.0619279  
C        C      0.625000000000     0.452700000000     0.830100000000     0.0619279  
C        C      0.781600000000     0.500700000000     0.736100000000     0.0619279  
C        C      0.517900000000     0.297900000000     0.728800000000     0.0619279  
C        C      0.270900000000     0.369300000000     0.912400000000     0.0619279  
C        C      0.612000000000     0.270300000000     0.083800000000     0.0619279  
C        C      0.822600000000     0.933500000000     0.752800000000     0.0619279  
C        C      0.869800000000     0.852400000000     0.701700000000     0.0619279  
C        C      0.830600000000     0.818800000000     0.625900000000     0.0619279  
C        C      0.875000000000     0.952700000000     0.830100000000     0.0619279  
C        C      0.718400000000     0.000700000000     0.736100000000     0.0619279  
C        C      0.982100000000     0.797900000000     0.728800000000     0.0619279  
C        C      0.229100000000     0.869300000000     0.912400000000     0.0619279  
C        C      0.888000000000     0.770300000000     0.083800000000     0.0619279  
C        C      0.677400000000     0.066500000000     0.252800000000     0.0619279  
C        C      0.630200000000     0.147600000000     0.201700000000     0.0619279  
C        C      0.669400000000     0.181200000000     0.125900000000     0.0619279  
C        C      0.625000000000     0.047300000000     0.330100000000     0.0619279  
C        C      0.781600000000     0.999300000000     0.236100000000     0.0619279  
C        C      0.517900000000     0.202100000000     0.228800000000     0.0619279  
C        C      0.270900000000     0.130700000000     0.412400000000     0.0619279  
C        C      0.612000000000     0.229700000000     0.583800000000     0.0619279  
C        C      0.177400000000     0.433500000000     0.747200000000     0.0619279  
C        C      0.130200000000     0.352400000000     0.798300000000     0.0619279  
C        C      0.169400000000     0.318800000000     0.874100000000     0.0619279  
C        C      0.125000000000     0.452700000000     0.669900000000     0.0619279  
C        C      0.281600000000     0.500700000000     0.763900000000     0.0619279  
C        C      0.017900000000     0.297900000000     0.771200000000     0.0619279  
C        C      0.770900000000     0.369300000000     0.587600000000     0.0619279  
C        C      0.112000000000     0.270300000000     0.416200000000     0.0619279  
C        C      0.322600000000     0.566500000000     0.247200000000     0.0619279  
C        C      0.369800000000     0.647600000000     0.298300000000     0.0619279  
C        C      0.330600000000     0.681200000000     0.374100000000     0.0619279  
C        C      0.375000000000     0.547300000000     0.169900000000     0.0619279  
C        C      0.218400000000     0.499300000000     0.263900000000     0.0619279  
C        C      0.482100000000     0.702100000000     0.271200000000     0.0619279  
C        C      0.729100000000     0.630700000000     0.087600000000     0.0619279  
C        C      0.388000000000     0.729700000000     0.916200000000     0.0619279  
N        N      0.090200000000     0.032500000000     0.107700000000    -0.170692   
N        N      0.362100000000     0.942600000000     0.274400000000    -0.170692   
N        N      0.930500000000     0.242700000000     0.252700000000    -0.170692   
N        N      0.848600000000     0.089600000000     0.051700000000    -0.170692   
N        N      0.066800000000     0.158000000000     0.951800000000    -0.170692   
N        N      0.409800000000     0.967500000000     0.607700000000    -0.170692   
N        N      0.137900000000     0.057400000000     0.774400000000    -0.170692   
N        N      0.569500000000     0.757300000000     0.752700000000    -0.170692   
N        N      0.651400000000     0.910400000000     0.551700000000    -0.170692   
N        N      0.433200000000     0.842000000000     0.451800000000    -0.170692   
N        N      0.909800000000     0.532500000000     0.392300000000    -0.170692   
N        N      0.637900000000     0.442600000000     0.225600000000    -0.170692   
N        N      0.069500000000     0.742700000000     0.247300000000    -0.170692   
N        N      0.151400000000     0.589600000000     0.448300000000    -0.170692   
N        N      0.933200000000     0.658000000000     0.548200000000    -0.170692   
N        N      0.590200000000     0.467500000000     0.892300000000    -0.170692   
N        N      0.862100000000     0.557400000000     0.725600000000    -0.170692   
N        N      0.430500000000     0.257300000000     0.747300000000    -0.170692   
N        N      0.348600000000     0.410400000000     0.948300000000    -0.170692   
N        N      0.566800000000     0.342000000000     0.048200000000    -0.170692   
N        N      0.909800000000     0.967500000000     0.892300000000    -0.170692   
N        N      0.637900000000     0.057400000000     0.725600000000    -0.170692   
N        N      0.069500000000     0.757300000000     0.747300000000    -0.170692   
N        N      0.151400000000     0.910400000000     0.948300000000    -0.170692   
N        N      0.933200000000     0.842000000000     0.048200000000    -0.170692   
N        N      0.590200000000     0.032500000000     0.392300000000    -0.170692   
N        N      0.862100000000     0.942600000000     0.225600000000    -0.170692   
N        N      0.430500000000     0.242700000000     0.247300000000    -0.170692   
N        N      0.348600000000     0.089600000000     0.448300000000    -0.170692   
N        N      0.566800000000     0.158000000000     0.548200000000    -0.170692   
N        N      0.090200000000     0.467500000000     0.607700000000    -0.170692   
N        N      0.362100000000     0.557400000000     0.774400000000    -0.170692   
N        N      0.930500000000     0.257300000000     0.752700000000    -0.170692   
N        N      0.848600000000     0.410400000000     0.551700000000    -0.170692   
N        N      0.066800000000     0.342000000000     0.451800000000    -0.170692   
N        N      0.409800000000     0.532500000000     0.107700000000    -0.170692   
N        N      0.137900000000     0.442600000000     0.274400000000    -0.170692   
N        N      0.569500000000     0.742700000000     0.252700000000    -0.170692   
N        N      0.651400000000     0.589600000000     0.051700000000    -0.170692   
N        N      0.433200000000     0.658000000000     0.951800000000    -0.170692   


