data_LETRIN_original

_audit_creation_method RASPA-1.0
_audit_creation_date 2022-1-31
_audit_author_name 'Felipe Lopes de Oliveira <felipe.lopes.oliveira@ibm.com>'

_cell_length_a    11.0178
_cell_length_b    11.0178
_cell_length_c    11.0892
_cell_angle_alpha 87.3837
_cell_angle_beta  87.3837
_cell_angle_gamma 70.5868
_cell_volume      1267.62

_symmetry_cell_setting          triclinic
_symmetry_space_group_name_Hall 'P 1'
_symmetry_space_group_name_H-M  'P 1'
_symmetry_Int_Tables_number     1

_symmetry_equiv_pos_as_xyz 'x,y,z'

loop_
_atom_site_label
_atom_site_type_symbol
_atom_site_fract_x
_atom_site_fract_y
_atom_site_fract_z
_atom_site_charge
Zn       Zn     0.970920000000     0.868700000000     0.000830000000     0.39877    
Zn       Zn     0.131300000000     0.029080000000     0.499170000000     0.39877    
Zn       Zn     0.029080000000     0.131300000000     0.999170000000     0.39877    
Zn       Zn     0.868700000000     0.970920000000     0.500830000000     0.39877    
Zn       Zn     0.103900000000     0.896100000000     0.250000000000     0.39877    
Zn       Zn     0.896100000000     0.103900000000     0.750000000000     0.39877    
H        H      0.990500000000     0.913500000000     0.449900000000     0.0871953  
H        H      0.062500000000     0.433900000000     0.065900000000     0.0871953  
H        H      0.125500000000     0.546100000000     0.391500000000     0.0871953  
H        H      0.128600000000     0.353000000000     0.483600000000     0.0871953  
H        H      0.086500000000     0.009500000000     0.050100000000     0.0871953  
H        H      0.566100000000     0.937500000000     0.434100000000     0.0871953  
H        H      0.453900000000     0.874500000000     0.108500000000     0.0871953  
H        H      0.647000000000     0.871400000000     0.016400000000     0.0871953  
H        H      0.009500000000     0.086500000000     0.550100000000     0.0871953  
H        H      0.937500000000     0.566100000000     0.934100000000     0.0871953  
H        H      0.874500000000     0.453900000000     0.608500000000     0.0871953  
H        H      0.871400000000     0.647000000000     0.516400000000     0.0871953  
H        H      0.913500000000     0.990500000000     0.949900000000     0.0871953  
H        H      0.433900000000     0.062500000000     0.565900000000     0.0871953  
H        H      0.546100000000     0.125500000000     0.891500000000     0.0871953  
H        H      0.353000000000     0.128600000000     0.983600000000     0.0871953  
C        C      0.096470000000     0.276870000000     0.327900000000     0.0363814  
C        C      0.075910000000     0.299910000000     0.204600000000     0.0363814  
C        C      0.074420000000     0.418020000000     0.148300000000     0.0363814  
C        C      0.091720000000     0.508720000000     0.221500000000     0.0363814  
C        C      0.112700000000     0.483100000000     0.345500000000     0.0363814  
C        C      0.115300000000     0.368700000000     0.401400000000     0.0363814  
C        C      0.088630000000     0.639830000000     0.170000000000     0.0363814  
C        C      0.723130000000     0.903530000000     0.172100000000     0.0363814  
C        C      0.700090000000     0.924090000000     0.295400000000     0.0363814  
C        C      0.581980000000     0.925580000000     0.351700000000     0.0363814  
C        C      0.491280000000     0.908280000000     0.278500000000     0.0363814  
C        C      0.516900000000     0.887300000000     0.154500000000     0.0363814  
C        C      0.631300000000     0.884700000000     0.098600000000     0.0363814  
C        C      0.360170000000     0.911370000000     0.330000000000     0.0363814  
C        C      0.903530000000     0.723130000000     0.672100000000     0.0363814  
C        C      0.924090000000     0.700090000000     0.795400000000     0.0363814  
C        C      0.925580000000     0.581980000000     0.851700000000     0.0363814  
C        C      0.908280000000     0.491280000000     0.778500000000     0.0363814  
C        C      0.887300000000     0.516900000000     0.654500000000     0.0363814  
C        C      0.884700000000     0.631300000000     0.598600000000     0.0363814  
C        C      0.911370000000     0.360170000000     0.830000000000     0.0363814  
C        C      0.276870000000     0.096470000000     0.827900000000     0.0363814  
C        C      0.299910000000     0.075910000000     0.704600000000     0.0363814  
C        C      0.418020000000     0.074420000000     0.648300000000     0.0363814  
C        C      0.508720000000     0.091720000000     0.721500000000     0.0363814  
C        C      0.483100000000     0.112700000000     0.845500000000     0.0363814  
C        C      0.368700000000     0.115300000000     0.901400000000     0.0363814  
C        C      0.639830000000     0.088630000000     0.670000000000     0.0363814  
N        N      0.092940000000     0.157540000000     0.355300000000    -0.10298    
N        N      0.071410000000     0.109010000000     0.254800000000    -0.10298    
N        N      0.061560000000     0.191360000000     0.161300000000    -0.10298    
N        N      0.842460000000     0.907060000000     0.144700000000    -0.10298    
N        N      0.890990000000     0.928590000000     0.245200000000    -0.10298    
N        N      0.808640000000     0.938440000000     0.338700000000    -0.10298    
N        N      0.907060000000     0.842460000000     0.644700000000    -0.10298    
N        N      0.928590000000     0.890990000000     0.745200000000    -0.10298    
N        N      0.938440000000     0.808640000000     0.838700000000    -0.10298    
N        N      0.157540000000     0.092940000000     0.855300000000    -0.10298    
N        N      0.109010000000     0.071410000000     0.754800000000    -0.10298    
N        N      0.191360000000     0.061560000000     0.661300000000    -0.10298    
O        O      0.130790000000     0.704190000000     0.238100000000    -0.297556   
O        O      0.045050000000     0.673250000000     0.067100000000    -0.297556   
O        O      0.070510000000     0.896210000000     0.433900000000    -0.297556   
O        O      0.295810000000     0.869210000000     0.261900000000    -0.297556   
O        O      0.326750000000     0.954950000000     0.432900000000    -0.297556   
O        O      0.103790000000     0.929490000000     0.066100000000    -0.297556   
O        O      0.869210000000     0.295810000000     0.761900000000    -0.297556   
O        O      0.954950000000     0.326750000000     0.932900000000    -0.297556   
O        O      0.929490000000     0.103790000000     0.566100000000    -0.297556   
O        O      0.704190000000     0.130790000000     0.738100000000    -0.297556   
O        O      0.673250000000     0.045050000000     0.567100000000    -0.297556   
O        O      0.896210000000     0.070510000000     0.933900000000    -0.297556   


