data_LIBJAJ_original

_audit_creation_method RASPA-1.0
_audit_creation_date 2022-1-29
_audit_author_name 'Felipe Lopes de Oliveira <felipe.lopes.oliveira@ibm.com>'

_cell_length_a    7.7159
_cell_length_b    7.8623
_cell_length_c    18.323
_cell_angle_alpha 90
_cell_angle_beta  90
_cell_angle_gamma 95.7
_cell_volume      1106.06

_symmetry_cell_setting          triclinic
_symmetry_space_group_name_Hall 'P 1'
_symmetry_space_group_name_H-M  'P 1'
_symmetry_Int_Tables_number     1

_symmetry_equiv_pos_as_xyz 'x,y,z'

loop_
_atom_site_label
_atom_site_type_symbol
_atom_site_fract_x
_atom_site_fract_y
_atom_site_fract_z
_atom_site_charge
Ca       Ca     0.720830000000     0.780840000000     0.725610000000     1.30176    
Ca       Ca     0.779170000000     0.219160000000     0.225610000000     1.30176    
Ca       Ca     0.279170000000     0.219160000000     0.274380000000     1.30176    
Ca       Ca     0.220830000000     0.780840000000     0.774390000000     1.30176    
H        H      0.625600000000     0.296800000000     0.926600000000     0.0353545  
H        H      0.727700000000     0.452900000000     0.966400000000     0.0353545  
H        H      0.385800000000     0.451600000000     0.910100000000     0.0353545  
H        H      0.390900000000     0.739100000000     0.945000000000     0.0353545  
H        H      0.577800000000     0.735000000000     0.978400000000     0.0353545  
H        H      0.775200000000     0.991300000000     0.957900000000     0.0353545  
H        H      0.079000000000     0.816500000000     0.945200000000     0.0353545  
H        H      0.891500000000     0.725400000000     0.959200000000     0.0353545  
H        H      0.953700000000     0.243800000000     0.929500000000     0.0353545  
H        H      0.118100000000     0.141100000000     0.926100000000     0.0353545  
H        H      0.874400000000     0.703200000000     0.426600000000     0.0353545  
H        H      0.772300000000     0.547100000000     0.466400000000     0.0353545  
H        H      0.114200000000     0.548400000000     0.410100000000     0.0353545  
H        H      0.109100000000     0.260900000000     0.445000000000     0.0353545  
H        H      0.922200000000     0.265000000000     0.478400000000     0.0353545  
H        H      0.724800000000     0.008700000000     0.457900000000     0.0353545  
H        H      0.421000000000     0.183500000000     0.445200000000     0.0353545  
H        H      0.608500000000     0.274600000000     0.459200000000     0.0353545  
H        H      0.546300000000     0.756200000000     0.429500000000     0.0353545  
H        H      0.381900000000     0.858900000000     0.426100000000     0.0353545  
H        H      0.374400000000     0.703200000000     0.073400000000     0.0353545  
H        H      0.272300000000     0.547100000000     0.033600000000     0.0353545  
H        H      0.614200000000     0.548400000000     0.089900000000     0.0353545  
H        H      0.609100000000     0.260900000000     0.055000000000     0.0353545  
H        H      0.422200000000     0.265000000000     0.021600000000     0.0353545  
H        H      0.224800000000     0.008700000000     0.042100000000     0.0353545  
H        H      0.921000000000     0.183500000000     0.054800000000     0.0353545  
H        H      0.108500000000     0.274600000000     0.040800000000     0.0353545  
H        H      0.046300000000     0.756200000000     0.070500000000     0.0353545  
H        H      0.881900000000     0.858900000000     0.073900000000     0.0353545  
H        H      0.125600000000     0.296800000000     0.573400000000     0.0353545  
H        H      0.227700000000     0.452900000000     0.533600000000     0.0353545  
H        H      0.885800000000     0.451600000000     0.589900000000     0.0353545  
H        H      0.890900000000     0.739100000000     0.555000000000     0.0353545  
H        H      0.077800000000     0.735000000000     0.521600000000     0.0353545  
H        H      0.275200000000     0.991300000000     0.542100000000     0.0353545  
H        H      0.579000000000     0.816500000000     0.554800000000     0.0353545  
H        H      0.391500000000     0.725400000000     0.540800000000     0.0353545  
H        H      0.453700000000     0.243800000000     0.570500000000     0.0353545  
H        H      0.618100000000     0.141100000000     0.573900000000     0.0353545  
C        C      0.571300000000     0.583100000000     0.847250000000     0.02379    
C        C      0.612800000000     0.394500000000     0.957810000000     0.02379    
C        C      0.499200000000     0.515400000000     0.919630000000     0.02379    
C        C      0.468000000000     0.667100000000     0.969380000000     0.02379    
C        C      0.857700000000     0.957700000000     0.852990000000     0.02379    
C        C      0.888000000000     0.981700000000     0.934460000000     0.02379    
C        C      0.967700000000     0.829000000000     0.968200000000     0.02379    
C        C      0.006200000000     0.146900000000     0.949570000000     0.02379    
C        C      0.928700000000     0.416900000000     0.347250000000     0.02379    
C        C      0.887200000000     0.605500000000     0.457810000000     0.02379    
C        C      0.000800000000     0.484600000000     0.419630000000     0.02379    
C        C      0.032000000000     0.332900000000     0.469380000000     0.02379    
C        C      0.642300000000     0.042300000000     0.352990000000     0.02379    
C        C      0.612000000000     0.018300000000     0.434460000000     0.02379    
C        C      0.532300000000     0.171000000000     0.468200000000     0.02379    
C        C      0.493800000000     0.853100000000     0.449570000000     0.02379    
C        C      0.428700000000     0.416900000000     0.152750000000     0.02379    
C        C      0.387200000000     0.605500000000     0.042190000000     0.02379    
C        C      0.500800000000     0.484600000000     0.080370000000     0.02379    
C        C      0.532000000000     0.332900000000     0.030620000000     0.02379    
C        C      0.142300000000     0.042300000000     0.147010000000     0.02379    
C        C      0.112000000000     0.018300000000     0.065540000000     0.02379    
C        C      0.032300000000     0.171000000000     0.031800000000     0.02379    
C        C      0.993800000000     0.853100000000     0.050430000000     0.02379    
C        C      0.071300000000     0.583100000000     0.652750000000     0.02379    
C        C      0.112800000000     0.394500000000     0.542190000000     0.02379    
C        C      0.999200000000     0.515400000000     0.580370000000     0.02379    
C        C      0.968000000000     0.667100000000     0.530620000000     0.02379    
C        C      0.357700000000     0.957700000000     0.647010000000     0.02379    
C        C      0.388000000000     0.981700000000     0.565540000000     0.02379    
C        C      0.467700000000     0.829000000000     0.531800000000     0.02379    
C        C      0.506200000000     0.146900000000     0.550430000000     0.02379    
O        O      0.473680000000     0.660730000000     0.806370000000    -0.461406   
O        O      0.727160000000     0.567320000000     0.828660000000    -0.461406   
O        O      0.972950000000     0.900690000000     0.813900000000    -0.461406   
O        O      0.714200000000     0.992620000000     0.825650000000    -0.461406   
O        O      0.026320000000     0.339270000000     0.306370000000    -0.461406   
O        O      0.772840000000     0.432680000000     0.328660000000    -0.461406   
O        O      0.527050000000     0.099310000000     0.313900000000    -0.461406   
O        O      0.785800000000     0.007380000000     0.325650000000    -0.461406   
O        O      0.526320000000     0.339270000000     0.193630000000    -0.461406   
O        O      0.272840000000     0.432680000000     0.171340000000    -0.461406   
O        O      0.027050000000     0.099310000000     0.186100000000    -0.461406   
O        O      0.285800000000     0.007380000000     0.174350000000    -0.461406   
O        O      0.973680000000     0.660730000000     0.693630000000    -0.461406   
O        O      0.227160000000     0.567320000000     0.671340000000    -0.461406   
O        O      0.472950000000     0.900690000000     0.686100000000    -0.461406   
O        O      0.214200000000     0.992620000000     0.674350000000    -0.461406   


