data_LIDZUV_original

_audit_creation_method RASPA-1.0
_audit_creation_date 2022-1-31
_audit_author_name 'Felipe Lopes de Oliveira <felipe.lopes.oliveira@ibm.com>'

_cell_length_a    5.5761
_cell_length_b    11.8301
_cell_length_c    22.7922
_cell_angle_alpha 100.493
_cell_angle_beta  90
_cell_angle_gamma 90
_cell_volume      1478.36

_symmetry_cell_setting          triclinic
_symmetry_space_group_name_Hall 'P 1'
_symmetry_space_group_name_H-M  'P 1'
_symmetry_Int_Tables_number     1

_symmetry_equiv_pos_as_xyz 'x,y,z'

loop_
_atom_site_label
_atom_site_type_symbol
_atom_site_fract_x
_atom_site_fract_y
_atom_site_fract_z
_atom_site_charge
Ca       Ca     0.256380000000     0.863410000000     0.777160000000     1.55403    
Ca       Ca     0.756380000000     0.636590000000     0.722840000000     1.55403    
Ca       Ca     0.743620000000     0.136590000000     0.222840000000     1.55403    
Ca       Ca     0.243620000000     0.363410000000     0.277160000000     1.55403    
H        H      0.624700000000     0.267600000000     0.094100000000     0.044967   
H        H      0.706300000000     0.225000000000     0.992500000000     0.044967   
H        H      0.055300000000     0.079100000000     0.962700000000     0.044967   
H        H      0.971400000000     0.126800000000     0.064000000000     0.044967   
H        H      0.978100000000     0.316100000000     0.780600000000     0.044967   
H        H      0.063700000000     0.161500000000     0.827100000000     0.044967   
H        H      0.698700000000     0.306500000000     0.881700000000     0.044967   
H        H      0.618700000000     0.456400000000     0.831000000000     0.044967   
H        H      0.124700000000     0.232400000000     0.405900000000     0.044967   
H        H      0.206300000000     0.275000000000     0.507500000000     0.044967   
H        H      0.555300000000     0.420900000000     0.537300000000     0.044967   
H        H      0.471400000000     0.373200000000     0.436000000000     0.044967   
H        H      0.478100000000     0.183900000000     0.719400000000     0.044967   
H        H      0.563700000000     0.338500000000     0.672900000000     0.044967   
H        H      0.198700000000     0.193500000000     0.618300000000     0.044967   
H        H      0.118700000000     0.043600000000     0.669000000000     0.044967   
H        H      0.375300000000     0.732400000000     0.905900000000     0.044967   
H        H      0.293700000000     0.775000000000     0.007500000000     0.044967   
H        H      0.944700000000     0.920900000000     0.037300000000     0.044967   
H        H      0.028600000000     0.873200000000     0.936000000000     0.044967   
H        H      0.021900000000     0.683900000000     0.219400000000     0.044967   
H        H      0.936300000000     0.838500000000     0.172900000000     0.044967   
H        H      0.301300000000     0.693500000000     0.118300000000     0.044967   
H        H      0.381300000000     0.543600000000     0.169000000000     0.044967   
H        H      0.875300000000     0.767600000000     0.594100000000     0.044967   
H        H      0.793700000000     0.725000000000     0.492500000000     0.044967   
H        H      0.444700000000     0.579100000000     0.462700000000     0.044967   
H        H      0.528600000000     0.626800000000     0.564000000000     0.044967   
H        H      0.521900000000     0.816100000000     0.280600000000     0.044967   
H        H      0.436300000000     0.661500000000     0.327100000000     0.044967   
H        H      0.801300000000     0.806500000000     0.381700000000     0.044967   
H        H      0.881300000000     0.956400000000     0.331000000000     0.044967   
C        C      0.238800000000     0.222970000000     0.155110000000     0.0319123  
C        C      0.292600000000     0.198450000000     0.089260000000     0.0319123  
C        C      0.511200000000     0.229400000000     0.067840000000     0.0319123  
C        C      0.560900000000     0.203500000000     0.007120000000     0.0319123  
C        C      0.390800000000     0.145200000000     0.968660000000     0.0319123  
C        C      0.169300000000     0.116500000000     0.989130000000     0.0319123  
C        C      0.120500000000     0.144400000000     0.049710000000     0.0319123  
C        C      0.241300000000     0.495600000000     0.765420000000     0.0319123  
C        C      0.292400000000     0.400450000000     0.800370000000     0.0319123  
C        C      0.124200000000     0.312800000000     0.799920000000     0.0319123  
C        C      0.173600000000     0.220900000000     0.828170000000     0.0319123  
C        C      0.389600000000     0.219370000000     0.857970000000     0.0319123  
C        C      0.556600000000     0.307700000000     0.860440000000     0.0319123  
C        C      0.507200000000     0.397800000000     0.830620000000     0.0319123  
C        C      0.738800000000     0.277030000000     0.344890000000     0.0319123  
C        C      0.792600000000     0.301550000000     0.410740000000     0.0319123  
C        C      0.011200000000     0.270600000000     0.432160000000     0.0319123  
C        C      0.060900000000     0.296500000000     0.492880000000     0.0319123  
C        C      0.890800000000     0.354800000000     0.531340000000     0.0319123  
C        C      0.669300000000     0.383500000000     0.510870000000     0.0319123  
C        C      0.620500000000     0.355600000000     0.450290000000     0.0319123  
C        C      0.741300000000     0.004400000000     0.734580000000     0.0319123  
C        C      0.792400000000     0.099550000000     0.699630000000     0.0319123  
C        C      0.624200000000     0.187200000000     0.700080000000     0.0319123  
C        C      0.673600000000     0.279100000000     0.671830000000     0.0319123  
C        C      0.889600000000     0.280630000000     0.642030000000     0.0319123  
C        C      0.056600000000     0.192300000000     0.639560000000     0.0319123  
C        C      0.007200000000     0.102200000000     0.669380000000     0.0319123  
C        C      0.761200000000     0.777030000000     0.844890000000     0.0319123  
C        C      0.707400000000     0.801550000000     0.910740000000     0.0319123  
C        C      0.488800000000     0.770600000000     0.932160000000     0.0319123  
C        C      0.439100000000     0.796500000000     0.992880000000     0.0319123  
C        C      0.609200000000     0.854800000000     0.031340000000     0.0319123  
C        C      0.830700000000     0.883500000000     0.010870000000     0.0319123  
C        C      0.879500000000     0.855600000000     0.950290000000     0.0319123  
C        C      0.758700000000     0.504400000000     0.234580000000     0.0319123  
C        C      0.707600000000     0.599550000000     0.199630000000     0.0319123  
C        C      0.875800000000     0.687200000000     0.200080000000     0.0319123  
C        C      0.826400000000     0.779100000000     0.171830000000     0.0319123  
C        C      0.610400000000     0.780630000000     0.142030000000     0.0319123  
C        C      0.443400000000     0.692300000000     0.139560000000     0.0319123  
C        C      0.492800000000     0.602200000000     0.169380000000     0.0319123  
C        C      0.261200000000     0.722970000000     0.655110000000     0.0319123  
C        C      0.207400000000     0.698450000000     0.589260000000     0.0319123  
C        C      0.988800000000     0.729400000000     0.567840000000     0.0319123  
C        C      0.939100000000     0.703500000000     0.507120000000     0.0319123  
C        C      0.109200000000     0.645200000000     0.468660000000     0.0319123  
C        C      0.330700000000     0.616500000000     0.489130000000     0.0319123  
C        C      0.379500000000     0.644400000000     0.549710000000     0.0319123  
C        C      0.258700000000     0.995600000000     0.265420000000     0.0319123  
C        C      0.207600000000     0.900450000000     0.300370000000     0.0319123  
C        C      0.375800000000     0.812800000000     0.299920000000     0.0319123  
C        C      0.326400000000     0.720900000000     0.328170000000     0.0319123  
C        C      0.110400000000     0.719370000000     0.357970000000     0.0319123  
C        C      0.943400000000     0.807700000000     0.360440000000     0.0319123  
C        C      0.992800000000     0.897800000000     0.330620000000     0.0319123  
S        S      0.463820000000     0.102110000000     0.892290000000     0.310373   
S        S      0.963820000000     0.397890000000     0.607710000000     0.310373   
S        S      0.536180000000     0.897890000000     0.107710000000     0.310373   
S        S      0.036180000000     0.602110000000     0.392290000000     0.310373   
O        O      0.414400000000     0.237280000000     0.190730000000    -0.445152   
O        O      0.024900000000     0.231810000000     0.171690000000    -0.445152   
O        O      0.025500000000     0.515990000000     0.756680000000    -0.445152   
O        O      0.419200000000     0.543250000000     0.747350000000    -0.445152   
O        O      0.305500000000     0.006970000000     0.868770000000    -0.445152   
O        O      0.718900000000     0.085080000000     0.888210000000    -0.445152   
O        O      0.914400000000     0.262720000000     0.309270000000    -0.445152   
O        O      0.524900000000     0.268190000000     0.328310000000    -0.445152   
O        O      0.525500000000     0.984010000000     0.743320000000    -0.445152   
O        O      0.919200000000     0.956750000000     0.752650000000    -0.445152   
O        O      0.805500000000     0.493030000000     0.631230000000    -0.445152   
O        O      0.218900000000     0.414920000000     0.611790000000    -0.445152   
O        O      0.585600000000     0.762720000000     0.809270000000    -0.445152   
O        O      0.975100000000     0.768190000000     0.828310000000    -0.445152   
O        O      0.974500000000     0.484010000000     0.243320000000    -0.445152   
O        O      0.580800000000     0.456750000000     0.252650000000    -0.445152   
O        O      0.694500000000     0.993030000000     0.131230000000    -0.445152   
O        O      0.281100000000     0.914920000000     0.111790000000    -0.445152   
O        O      0.085600000000     0.737280000000     0.690730000000    -0.445152   
O        O      0.475100000000     0.731810000000     0.671690000000    -0.445152   
O        O      0.474500000000     0.015990000000     0.256680000000    -0.445152   
O        O      0.080800000000     0.043250000000     0.247350000000    -0.445152   
O        O      0.194500000000     0.506970000000     0.368770000000    -0.445152   
O        O      0.781100000000     0.585080000000     0.388210000000    -0.445152   


