data_LIWXIZ_original

_audit_creation_method RASPA-1.0
_audit_creation_date 2022-1-29
_audit_author_name 'Felipe Lopes de Oliveira <felipe.lopes.oliveira@ibm.com>'

_cell_length_a    4.789
_cell_length_b    11.771
_cell_length_c    26.329
_cell_angle_alpha 96.822
_cell_angle_beta  90
_cell_angle_gamma 90
_cell_volume      1473.69

_symmetry_cell_setting          triclinic
_symmetry_space_group_name_Hall 'P 1'
_symmetry_space_group_name_H-M  'P 1'
_symmetry_Int_Tables_number     1

_symmetry_equiv_pos_as_xyz 'x,y,z'

loop_
_atom_site_label
_atom_site_type_symbol
_atom_site_fract_x
_atom_site_fract_y
_atom_site_fract_z
_atom_site_charge
Zn       Zn     0.295530000000     0.095410000000     0.550640000000     0.468517   
Zn       Zn     0.277380000000     0.824150000000     0.970520000000     0.468517   
Zn       Zn     0.795530000000     0.904590000000     0.449360000000     0.468517   
Zn       Zn     0.777380000000     0.175850000000     0.029480000000     0.468517   
H        H      0.789800000000     0.256700000000     0.420500000000     0.0606951  
H        H      0.900200000000     0.287100000000     0.337500000000     0.0606951  
H        H      0.361100000000     0.042300000000     0.283400000000     0.0606951  
H        H      0.771200000000     0.958100000000     0.232100000000     0.0606951  
H        H      0.630400000000     0.833800000000     0.163700000000     0.0606951  
H        H      0.465400000000     0.218200000000     0.163700000000     0.0606951  
H        H      0.331900000000     0.239500000000     0.656700000000     0.0606951  
H        H      0.818600000000     0.290200000000     0.546500000000     0.0606951  
H        H      0.764200000000     0.449700000000     0.613800000000     0.0606951  
H        H      0.120400000000     0.523400000000     0.694000000000     0.0606951  
H        H      0.301900000000     0.426800000000     0.713600000000     0.0606951  
H        H      0.888200000000     0.258000000000     0.734300000000     0.0606951  
H        H      0.590700000000     0.242100000000     0.801200000000     0.0606951  
H        H      0.538300000000     0.582100000000     0.827700000000     0.0606951  
H        H      0.840600000000     0.597800000000     0.760500000000     0.0606951  
H        H      0.144100000000     0.401600000000     0.853700000000     0.0606951  
H        H      0.362900000000     0.324700000000     0.877900000000     0.0606951  
H        H      0.087300000000     0.609500000000     0.897000000000     0.0606951  
H        H      0.690200000000     0.620300000000     0.998400000000     0.0606951  
H        H      0.713300000000     0.433200000000     0.947200000000     0.0606951  
H        H      0.289800000000     0.743300000000     0.579500000000     0.0606951  
H        H      0.400200000000     0.712900000000     0.662500000000     0.0606951  
H        H      0.861100000000     0.957700000000     0.716600000000     0.0606951  
H        H      0.271200000000     0.041900000000     0.767900000000     0.0606951  
H        H      0.130400000000     0.166200000000     0.836300000000     0.0606951  
H        H      0.965400000000     0.781800000000     0.836300000000     0.0606951  
H        H      0.831900000000     0.760500000000     0.343300000000     0.0606951  
H        H      0.318600000000     0.709800000000     0.453500000000     0.0606951  
H        H      0.264200000000     0.550300000000     0.386200000000     0.0606951  
H        H      0.620400000000     0.476600000000     0.306000000000     0.0606951  
H        H      0.801900000000     0.573200000000     0.286400000000     0.0606951  
H        H      0.388200000000     0.742000000000     0.265700000000     0.0606951  
H        H      0.090700000000     0.757900000000     0.198800000000     0.0606951  
H        H      0.038300000000     0.417900000000     0.172300000000     0.0606951  
H        H      0.340600000000     0.402200000000     0.239500000000     0.0606951  
H        H      0.644100000000     0.598400000000     0.146300000000     0.0606951  
H        H      0.862900000000     0.675300000000     0.122100000000     0.0606951  
H        H      0.587300000000     0.390500000000     0.103000000000     0.0606951  
H        H      0.190200000000     0.379700000000     0.001600000000     0.0606951  
H        H      0.213300000000     0.566800000000     0.052800000000     0.0606951  
C        C      0.445000000000     0.116300000000     0.456740000000     0.0269237  
C        C      0.505900000000     0.131100000000     0.401920000000     0.0269237  
C        C      0.703200000000     0.213500000000     0.393050000000     0.0269237  
C        C      0.770800000000     0.231100000000     0.343320000000     0.0269237  
C        C      0.645400000000     0.165300000000     0.301990000000     0.0269237  
C        C      0.447700000000     0.085000000000     0.311010000000     0.0269237  
C        C      0.374400000000     0.066300000000     0.360860000000     0.0269237  
C        C      0.157300000000     0.979000000000     0.367660000000     0.0269237  
C        C      0.714500000000     0.188400000000     0.248940000000     0.0269237  
C        C      0.629800000000     0.102000000000     0.205270000000     0.0269237  
C        C      0.680900000000     0.985400000000     0.204760000000     0.0269237  
C        C      0.596800000000     0.911600000000     0.163580000000     0.0269237  
C        C      0.464000000000     0.948000000000     0.121820000000     0.0269237  
C        C      0.410100000000     0.065700000000     0.122450000000     0.0269237  
C        C      0.496800000000     0.140200000000     0.163720000000     0.0269237  
C        C      0.254700000000     0.113900000000     0.080330000000     0.0269237  
C        C      0.386900000000     0.863600000000     0.076670000000     0.0269237  
C        C      0.198300000000     0.272300000000     0.637380000000     0.0269237  
C        C      0.916500000000     0.299800000000     0.577200000000     0.0269237  
C        C      0.886500000000     0.388500000000     0.614200000000     0.0269237  
C        C      0.119100000000     0.444100000000     0.700590000000     0.0269237  
C        C      0.904000000000     0.429700000000     0.741010000000     0.0269237  
C        C      0.821000000000     0.323900000000     0.753370000000     0.0269237  
C        C      0.641000000000     0.314300000000     0.793330000000     0.0269237  
C        C      0.533700000000     0.410600000000     0.821950000000     0.0269237  
C        C      0.609800000000     0.516300000000     0.809190000000     0.0269237  
C        C      0.792700000000     0.525700000000     0.768850000000     0.0269237  
C        C      0.334800000000     0.398600000000     0.865820000000     0.0269237  
C        C      0.240000000000     0.589800000000     0.915890000000     0.0269237  
C        C      0.571800000000     0.594700000000     0.971480000000     0.0269237  
C        C      0.585900000000     0.491200000000     0.943360000000     0.0269237  
C        C      0.945000000000     0.883700000000     0.543260000000     0.0269237  
C        C      0.005900000000     0.868900000000     0.598080000000     0.0269237  
C        C      0.203200000000     0.786500000000     0.606950000000     0.0269237  
C        C      0.270800000000     0.768900000000     0.656680000000     0.0269237  
C        C      0.145400000000     0.834700000000     0.698010000000     0.0269237  
C        C      0.947700000000     0.915000000000     0.688990000000     0.0269237  
C        C      0.874400000000     0.933700000000     0.639140000000     0.0269237  
C        C      0.657300000000     0.021000000000     0.632340000000     0.0269237  
C        C      0.214500000000     0.811600000000     0.751060000000     0.0269237  
C        C      0.129800000000     0.898000000000     0.794730000000     0.0269237  
C        C      0.180900000000     0.014600000000     0.795240000000     0.0269237  
C        C      0.096800000000     0.088400000000     0.836420000000     0.0269237  
C        C      0.964000000000     0.052000000000     0.878180000000     0.0269237  
C        C      0.910100000000     0.934300000000     0.877550000000     0.0269237  
C        C      0.996800000000     0.859800000000     0.836280000000     0.0269237  
C        C      0.754700000000     0.886100000000     0.919670000000     0.0269237  
C        C      0.886900000000     0.136400000000     0.923330000000     0.0269237  
C        C      0.698300000000     0.727700000000     0.362620000000     0.0269237  
C        C      0.416500000000     0.700200000000     0.422800000000     0.0269237  
C        C      0.386500000000     0.611500000000     0.385800000000     0.0269237  
C        C      0.619100000000     0.555900000000     0.299410000000     0.0269237  
C        C      0.404000000000     0.570300000000     0.258990000000     0.0269237  
C        C      0.321000000000     0.676100000000     0.246630000000     0.0269237  
C        C      0.141000000000     0.685700000000     0.206670000000     0.0269237  
C        C      0.033700000000     0.589400000000     0.178050000000     0.0269237  
C        C      0.109800000000     0.483700000000     0.190810000000     0.0269237  
C        C      0.292700000000     0.474300000000     0.231150000000     0.0269237  
C        C      0.834800000000     0.601400000000     0.134180000000     0.0269237  
C        C      0.740000000000     0.410200000000     0.084110000000     0.0269237  
C        C      0.071800000000     0.405300000000     0.028520000000     0.0269237  
C        C      0.085900000000     0.508800000000     0.056640000000     0.0269237  
N        N      0.113000000000     0.226100000000     0.591880000000    -0.129635   
N        N      0.070800000000     0.371300000000     0.652410000000    -0.129635   
N        N      0.376700000000     0.488600000000     0.908140000000    -0.129635   
N        N      0.354200000000     0.656400000000     0.954070000000    -0.129635   
N        N      0.613000000000     0.773900000000     0.408120000000    -0.129635   
N        N      0.570800000000     0.628700000000     0.347590000000    -0.129635   
N        N      0.876700000000     0.511400000000     0.091860000000    -0.129635   
N        N      0.854200000000     0.343600000000     0.045930000000    -0.129635   
O        O      0.304900000000     0.186900000000     0.484520000000    -0.274115   
O        O      0.556700000000     0.035400000000     0.476380000000    -0.274115   
O        O      0.084600000000     0.974800000000     0.414110000000    -0.274115   
O        O      0.064000000000     0.917500000000     0.330560000000    -0.274115   
O        O      0.830000000000     0.276700000000     0.241510000000    -0.274115   
O        O      0.991900000000     0.104000000000     0.080940000000    -0.274115   
O        O      0.380700000000     0.170000000000     0.049970000000    -0.274115   
O        O      0.381600000000     0.761400000000     0.080660000000    -0.274115   
O        O      0.338800000000     0.908400000000     0.035980000000    -0.274115   
O        O      0.804900000000     0.813100000000     0.515480000000    -0.274115   
O        O      0.056700000000     0.964600000000     0.523620000000    -0.274115   
O        O      0.584600000000     0.025200000000     0.585890000000    -0.274115   
O        O      0.564000000000     0.082500000000     0.669440000000    -0.274115   
O        O      0.330000000000     0.723300000000     0.758490000000    -0.274115   
O        O      0.491900000000     0.896000000000     0.919060000000    -0.274115   
O        O      0.880700000000     0.830000000000     0.950030000000    -0.274115   
O        O      0.881600000000     0.238600000000     0.919340000000    -0.274115   
O        O      0.838800000000     0.091600000000     0.964020000000    -0.274115   


