data_LOLQIM_original

_audit_creation_method RASPA-1.0
_audit_creation_date 2022-1-31
_audit_author_name 'Felipe Lopes de Oliveira <felipe.lopes.oliveira@ibm.com>'

_cell_length_a    9.576
_cell_length_b    9.982
_cell_length_c    10
_cell_angle_alpha 107.67
_cell_angle_beta  97.96
_cell_angle_gamma 114.87
_cell_volume      786.183

_symmetry_cell_setting          triclinic
_symmetry_space_group_name_Hall 'P 1'
_symmetry_space_group_name_H-M  'P 1'
_symmetry_Int_Tables_number     1

_symmetry_equiv_pos_as_xyz 'x,y,z'

loop_
_atom_site_label
_atom_site_type_symbol
_atom_site_fract_x
_atom_site_fract_y
_atom_site_fract_z
_atom_site_charge
Zn       Zn     0.687820000000     0.208840000000     0.658980000000     0.516105   
Zn       Zn     0.312180000000     0.791160000000     0.341020000000     0.516105   
Ge       Ge     0.136410000000     0.966940000000     0.884550000000     1.12472    
Ge       Ge     0.863590000000     0.033060000000     0.115450000000     1.12472    
P        P      0.825400000000     0.599800000000     0.770900000000     0.548833   
P        P      0.663800000000     0.971600000000     0.340500000000     0.548833   
P        P      0.846100000000     0.030100000000     0.807100000000     0.548833   
P        P      0.174600000000     0.400200000000     0.229100000000     0.548833   
P        P      0.336200000000     0.028400000000     0.659500000000     0.548833   
P        P      0.153900000000     0.969900000000     0.192900000000     0.548833   
H        H      0.807800000000     0.922400000000     0.497300000000     0.191661   
H        H      0.739900000000     0.794500000000     0.559400000000     0.191661   
H        H      0.618400000000     0.607600000000     0.600500000000     0.191661   
H        H      0.192200000000     0.077600000000     0.502700000000     0.191661   
H        H      0.260100000000     0.205500000000     0.440600000000     0.191661   
H        H      0.381600000000     0.392400000000     0.399500000000     0.191661   
O        O      0.830500000000     0.442700000000     0.712600000000    -0.321859   
O        O      0.697900000000     0.604500000000     0.666200000000    -0.321859   
O        O      0.994800000000     0.736200000000     0.805700000000    -0.321859   
O        O      0.780100000000     0.615900000000     0.921400000000    -0.321859   
O        O      0.660800000000     0.112500000000     0.451400000000    -0.321859   
O        O      0.695400000000     0.002800000000     0.204600000000    -0.321859   
O        O      0.506300000000     0.813600000000     0.297800000000    -0.321859   
O        O      0.811300000000     0.952700000000     0.408500000000    -0.321859   
O        O      0.821300000000     0.159300000000     0.778800000000    -0.321859   
O        O      0.779600000000     0.882500000000     0.651900000000    -0.321859   
O        O      0.755500000000     0.963600000000     0.906700000000    -0.321859   
O        O      0.028300000000     0.093900000000     0.870600000000    -0.321859   
O        O      0.169500000000     0.557300000000     0.287400000000    -0.321859   
O        O      0.302100000000     0.395500000000     0.333800000000    -0.321859   
O        O      0.005200000000     0.263800000000     0.194300000000    -0.321859   
O        O      0.219900000000     0.384100000000     0.078600000000    -0.321859   
O        O      0.339200000000     0.887500000000     0.548600000000    -0.321859   
O        O      0.304600000000     0.997200000000     0.795400000000    -0.321859   
O        O      0.493700000000     0.186400000000     0.702200000000    -0.321859   
O        O      0.188700000000     0.047300000000     0.591500000000    -0.321859   
O        O      0.178700000000     0.840700000000     0.221200000000    -0.321859   
O        O      0.220400000000     0.117500000000     0.348100000000    -0.321859   
O        O      0.244500000000     0.036400000000     0.093300000000    -0.321859   
O        O      0.971700000000     0.906100000000     0.129400000000    -0.321859   


