data_LOQLEJ_original

_audit_creation_method RASPA-1.0
_audit_creation_date 2022-1-29
_audit_author_name 'Felipe Lopes de Oliveira <felipe.lopes.oliveira@ibm.com>'

_cell_length_a    7.233
_cell_length_b    21.7582
_cell_length_c    21.7582
_cell_angle_alpha 119.952
_cell_angle_beta  90
_cell_angle_gamma 90
_cell_volume      2966.91

_symmetry_cell_setting          triclinic
_symmetry_space_group_name_Hall 'P 1'
_symmetry_space_group_name_H-M  'P 1'
_symmetry_Int_Tables_number     1

_symmetry_equiv_pos_as_xyz 'x,y,z'

loop_
_atom_site_label
_atom_site_type_symbol
_atom_site_fract_x
_atom_site_fract_y
_atom_site_fract_z
_atom_site_charge
In       In     0.000000000000     0.000000000000     0.500000000000     2.81003    
In       In     0.500000000000     0.000000000000     0.500000000000     2.81003    
In       In     0.500000000000     0.500000000000     0.000000000000     2.81003    
In       In     0.000000000000     0.500000000000     0.000000000000     2.81003    
In       In     0.000000000000     0.000000000000     0.000000000000     2.81003    
In       In     0.500000000000     0.000000000000     0.000000000000     2.81003    
H        H      0.449210000000     0.795120000000     0.320500000000     0.0609763  
H        H      0.050240000000     0.968680000000     0.677440000000     0.0609763  
H        H      0.050820000000     0.969040000000     0.792020000000     0.0609763  
H        H      0.949210000000     0.204880000000     0.679500000000     0.0609763  
H        H      0.550240000000     0.031320000000     0.322560000000     0.0609763  
H        H      0.550820000000     0.030960000000     0.207980000000     0.0609763  
H        H      0.050790000000     0.679500000000     0.204880000000     0.0609763  
H        H      0.449760000000     0.322560000000     0.031320000000     0.0609763  
H        H      0.449180000000     0.207980000000     0.030960000000     0.0609763  
H        H      0.550790000000     0.320500000000     0.795120000000     0.0609763  
H        H      0.949760000000     0.677440000000     0.968680000000     0.0609763  
H        H      0.949180000000     0.792020000000     0.969040000000     0.0609763  
H        H      0.550790000000     0.204880000000     0.679500000000     0.0609763  
H        H      0.949760000000     0.031320000000     0.322560000000     0.0609763  
H        H      0.949180000000     0.030960000000     0.207980000000     0.0609763  
H        H      0.050790000000     0.795120000000     0.320500000000     0.0609763  
H        H      0.449760000000     0.968680000000     0.677440000000     0.0609763  
H        H      0.449180000000     0.969040000000     0.792020000000     0.0609763  
H        H      0.949210000000     0.320500000000     0.795120000000     0.0609763  
H        H      0.550240000000     0.677440000000     0.968680000000     0.0609763  
H        H      0.550820000000     0.792020000000     0.969040000000     0.0609763  
H        H      0.449210000000     0.679500000000     0.204880000000     0.0609763  
H        H      0.050240000000     0.322560000000     0.031320000000     0.0609763  
H        H      0.050820000000     0.207980000000     0.030960000000     0.0609763  
H        H      0.750170000000     0.456500000000     0.905190000000     0.0609763  
H        H      0.249970000000     0.905200000000     0.456500000000     0.0609763  
H        H      0.750030000000     0.094810000000     0.543490000000     0.0609763  
H        H      0.249990000000     0.453040000000     0.047990000000     0.0609763  
H        H      0.250000000000     0.076410000000     0.997520000000     0.0609763  
H        H      0.749950000000     0.997890000000     0.076440000000     0.0609763  
C        C      0.585600000000     0.767930000000     0.295330000000     0.117305   
C        C      0.913900000000     0.969590000000     0.704170000000     0.117305   
C        C      0.914200000000     0.969100000000     0.765920000000     0.117305   
C        C      0.085600000000     0.232070000000     0.704670000000     0.117305   
C        C      0.413900000000     0.030410000000     0.295830000000     0.117305   
C        C      0.414200000000     0.030900000000     0.234080000000     0.117305   
C        C      0.914400000000     0.704670000000     0.232070000000     0.117305   
C        C      0.586100000000     0.295830000000     0.030410000000     0.117305   
C        C      0.585800000000     0.234080000000     0.030900000000     0.117305   
C        C      0.414400000000     0.295330000000     0.767930000000     0.117305   
C        C      0.086100000000     0.704170000000     0.969590000000     0.117305   
C        C      0.085800000000     0.765920000000     0.969100000000     0.117305   
C        C      0.414400000000     0.232070000000     0.704670000000     0.117305   
C        C      0.086100000000     0.030410000000     0.295830000000     0.117305   
C        C      0.085800000000     0.030900000000     0.234080000000     0.117305   
C        C      0.914400000000     0.767930000000     0.295330000000     0.117305   
C        C      0.586100000000     0.969590000000     0.704170000000     0.117305   
C        C      0.585800000000     0.969100000000     0.765920000000     0.117305   
C        C      0.085600000000     0.295330000000     0.767930000000     0.117305   
C        C      0.413900000000     0.704170000000     0.969590000000     0.117305   
C        C      0.414200000000     0.765920000000     0.969100000000     0.117305   
C        C      0.585600000000     0.704670000000     0.232070000000     0.117305   
C        C      0.913900000000     0.295830000000     0.030410000000     0.117305   
C        C      0.914200000000     0.234080000000     0.030900000000     0.117305   
C        C      0.750000000000     0.870700000000     0.394040000000     0.117305   
C        C      0.750000000000     0.797860000000     0.327700000000     0.117305   
C        C      0.750000000000     0.977480000000     0.606140000000     0.117305   
C        C      0.750000000000     0.971190000000     0.672450000000     0.117305   
C        C      0.750000000000     0.968670000000     0.797510000000     0.117305   
C        C      0.750000000000     0.970750000000     0.868750000000     0.117305   
C        C      0.250000000000     0.129300000000     0.605960000000     0.117305   
C        C      0.250000000000     0.202140000000     0.672300000000     0.117305   
C        C      0.250000000000     0.022520000000     0.393860000000     0.117305   
C        C      0.250000000000     0.028810000000     0.327550000000     0.117305   
C        C      0.250000000000     0.031330000000     0.202490000000     0.117305   
C        C      0.250000000000     0.029250000000     0.131250000000     0.117305   
C        C      0.750000000000     0.605960000000     0.129300000000     0.117305   
C        C      0.750000000000     0.672300000000     0.202140000000     0.117305   
C        C      0.750000000000     0.393860000000     0.022520000000     0.117305   
C        C      0.750000000000     0.327550000000     0.028810000000     0.117305   
C        C      0.750000000000     0.202490000000     0.031330000000     0.117305   
C        C      0.750000000000     0.131250000000     0.029250000000     0.117305   
C        C      0.250000000000     0.394040000000     0.870700000000     0.117305   
C        C      0.250000000000     0.327700000000     0.797860000000     0.117305   
C        C      0.250000000000     0.606140000000     0.977480000000     0.117305   
C        C      0.250000000000     0.672450000000     0.971190000000     0.117305   
C        C      0.250000000000     0.797510000000     0.968670000000     0.117305   
C        C      0.250000000000     0.868750000000     0.970750000000     0.117305   
O        O      0.904350000000     0.897140000000     0.419280000000    -0.81067    
O        O      0.901940000000     0.977330000000     0.579950000000    -0.81067    
O        O      0.903530000000     0.971820000000     0.895840000000    -0.81067    
O        O      0.404350000000     0.102860000000     0.580720000000    -0.81067    
O        O      0.401940000000     0.022670000000     0.420050000000    -0.81067    
O        O      0.403530000000     0.028180000000     0.104160000000    -0.81067    
O        O      0.595650000000     0.580720000000     0.102860000000    -0.81067    
O        O      0.598060000000     0.420050000000     0.022670000000    -0.81067    
O        O      0.596470000000     0.104160000000     0.028180000000    -0.81067    
O        O      0.095650000000     0.419280000000     0.897140000000    -0.81067    
O        O      0.098060000000     0.579950000000     0.977330000000    -0.81067    
O        O      0.096470000000     0.895840000000     0.971820000000    -0.81067    
O        O      0.095650000000     0.102860000000     0.580720000000    -0.81067    
O        O      0.098060000000     0.022670000000     0.420050000000    -0.81067    
O        O      0.096470000000     0.028180000000     0.104160000000    -0.81067    
O        O      0.595650000000     0.897140000000     0.419280000000    -0.81067    
O        O      0.598060000000     0.977330000000     0.579950000000    -0.81067    
O        O      0.596470000000     0.971820000000     0.895840000000    -0.81067    
O        O      0.404350000000     0.419280000000     0.897140000000    -0.81067    
O        O      0.401940000000     0.579950000000     0.977330000000    -0.81067    
O        O      0.403530000000     0.895840000000     0.971820000000    -0.81067    
O        O      0.904350000000     0.580720000000     0.102860000000    -0.81067    
O        O      0.901940000000     0.420050000000     0.022670000000    -0.81067    
O        O      0.903530000000     0.104160000000     0.028180000000    -0.81067    
O        O      0.750000000000     0.048610000000     0.498830000000    -0.81067    
O        O      0.250000000000     0.951390000000     0.501170000000    -0.81067    
O        O      0.750000000000     0.501170000000     0.951390000000    -0.81067    
O        O      0.250000000000     0.498830000000     0.048610000000    -0.81067    
O        O      0.750000000000     0.975840000000     0.024160000000    -0.81067    
O        O      0.250000000000     0.024160000000     0.975840000000    -0.81067    


