data_LOWPUI_original

_audit_creation_method RASPA-1.0
_audit_creation_date 2022-1-29
_audit_author_name 'Felipe Lopes de Oliveira <felipe.lopes.oliveira@ibm.com>'

_cell_length_a    8.0275
_cell_length_b    9.382
_cell_length_c    9.382
_cell_angle_alpha 106.672
_cell_angle_beta  102.758
_cell_angle_gamma 102.758
_cell_volume      628.9

_symmetry_cell_setting          triclinic
_symmetry_space_group_name_Hall 'P 1'
_symmetry_space_group_name_H-M  'P 1'
_symmetry_Int_Tables_number     1

_symmetry_equiv_pos_as_xyz 'x,y,z'

loop_
_atom_site_label
_atom_site_type_symbol
_atom_site_fract_x
_atom_site_fract_y
_atom_site_fract_z
_atom_site_charge
Zn       Zn     0.047220000000     0.922680000000     0.923280000000     0.500771   
Zn       Zn     0.938740000000     0.086140000000     0.085640000000     0.500771   
H        H      0.555240000000     0.964240000000     0.244260000000     0.0790453  
H        H      0.821780000000     0.348380000000     0.877140000000     0.0790453  
H        H      0.942820000000     0.541820000000     0.015980000000     0.0790453  
H        H      0.437040000000     0.750240000000     0.033660000000     0.0790453  
H        H      0.942400000000     0.002440000000     0.547220000000     0.0790453  
H        H      0.825180000000     0.888140000000     0.346000000000     0.0790453  
H        H      0.436720000000     0.034380000000     0.750500000000     0.0790453  
H        H      0.555020000000     0.243780000000     0.963460000000     0.0790453  
H        H      0.217960000000     0.051100000000     0.533980000000     0.0790453  
H        H      0.217540000000     0.533300000000     0.048860000000     0.0790453  
C        C      0.222580000000     0.999560000000     0.230620000000     0.06681    
C        C      0.364140000000     0.001820000000     0.368620000000     0.06681    
C        C      0.526820000000     0.976040000000     0.353620000000     0.06681    
C        C      0.338980000000     0.028540000000     0.516240000000     0.06681    
C        C      0.771260000000     0.768080000000     0.000040000000     0.06681    
C        C      0.632360000000     0.628000000000     0.998800000000     0.06681    
C        C      0.468260000000     0.641920000000     0.022640000000     0.06681    
C        C      0.658180000000     0.479360000000     0.972760000000     0.06681    
C        C      0.770400000000     0.001780000000     0.769860000000     0.06681    
C        C      0.632480000000     0.000340000000     0.628980000000     0.06681    
C        C      0.468300000000     0.024000000000     0.642460000000     0.06681    
C        C      0.659140000000     0.974540000000     0.480440000000     0.06681    
C        C      0.222600000000     0.229320000000     0.997580000000     0.06681    
C        C      0.363520000000     0.367620000000     0.999700000000     0.06681    
C        C      0.526060000000     0.352700000000     0.974280000000     0.06681    
C        C      0.338500000000     0.515460000000     0.026600000000     0.06681    
N        N      0.821360000000     0.455540000000     0.950320000000    -0.202878   
N        N      0.822280000000     0.951140000000     0.456420000000    -0.202878   
O        O      0.213100000000     0.921940000000     0.091580000000    -0.3069     
O        O      0.880640000000     0.923440000000     0.754200000000    -0.3069     
O        O      0.778200000000     0.906800000000     0.076960000000    -0.3069     
O        O      0.111600000000     0.248260000000     0.075060000000    -0.3069     
O        O      0.778800000000     0.081260000000     0.908180000000    -0.3069     
O        O      0.109720000000     0.075280000000     0.249420000000    -0.3069     
O        O      0.211920000000     0.090060000000     0.918860000000    -0.3069     
O        O      0.884180000000     0.751520000000     0.924480000000    -0.3069     


