data_LOWQIX_original

_audit_creation_method RASPA-1.0
_audit_creation_date 2022-1-30
_audit_author_name 'Felipe Lopes de Oliveira <felipe.lopes.oliveira@ibm.com>'

_cell_length_a    11.9838
_cell_length_b    13.509
_cell_length_c    27.039
_cell_angle_alpha 93.459
_cell_angle_beta  90
_cell_angle_gamma 90
_cell_volume      4369.35

_symmetry_cell_setting          triclinic
_symmetry_space_group_name_Hall 'P 1'
_symmetry_space_group_name_H-M  'P 1'
_symmetry_Int_Tables_number     1

_symmetry_equiv_pos_as_xyz 'x,y,z'

loop_
_atom_site_label
_atom_site_type_symbol
_atom_site_fract_x
_atom_site_fract_y
_atom_site_fract_z
_atom_site_charge
Zn       Zn     0.173490000000     0.823050000000     0.542040000000     0.431813   
Zn       Zn     0.826830000000     0.801520000000     0.443620000000     0.431813   
Zn       Zn     0.924060000000     0.988440000000     0.388950000000     0.431813   
Zn       Zn     0.173490000000     0.176950000000     0.957960000000     0.431813   
Zn       Zn     0.826830000000     0.198480000000     0.056380000000     0.431813   
Zn       Zn     0.924060000000     0.011560000000     0.111050000000     0.431813   
Zn       Zn     0.826510000000     0.176950000000     0.457960000000     0.431813   
Zn       Zn     0.173170000000     0.198480000000     0.556380000000     0.431813   
Zn       Zn     0.075940000000     0.011560000000     0.611050000000     0.431813   
Zn       Zn     0.826510000000     0.823050000000     0.042040000000     0.431813   
Zn       Zn     0.173170000000     0.801520000000     0.943620000000     0.431813   
Zn       Zn     0.075940000000     0.988440000000     0.888950000000     0.431813   
Zn       Zn     0.000000000000     0.000000000000     0.500000000000     0.431813   
Zn       Zn     0.000000000000     0.000000000000     0.000000000000     0.431813   
H        H      0.124600000000     0.861200000000     0.746100000000     0.0491365  
H        H      0.282400000000     0.638900000000     0.807400000000     0.0491365  
H        H      0.349300000000     0.588300000000     0.731900000000     0.0491365  
H        H      0.305100000000     0.666500000000     0.660400000000     0.0491365  
H        H      0.477000000000     0.891200000000     0.464500000000     0.0491365  
H        H      0.277600000000     0.109500000000     0.418500000000     0.0491365  
H        H      0.425100000000     0.183500000000     0.381900000000     0.0491365  
H        H      0.603000000000     0.099400000000     0.377800000000     0.0491365  
H        H      0.124600000000     0.138800000000     0.753900000000     0.0491365  
H        H      0.282400000000     0.361100000000     0.692600000000     0.0491365  
H        H      0.349300000000     0.411700000000     0.768100000000     0.0491365  
H        H      0.305100000000     0.333500000000     0.839600000000     0.0491365  
H        H      0.477000000000     0.108800000000     0.035500000000     0.0491365  
H        H      0.277600000000     0.890500000000     0.081500000000     0.0491365  
H        H      0.425100000000     0.816500000000     0.118100000000     0.0491365  
H        H      0.603000000000     0.900600000000     0.122200000000     0.0491365  
H        H      0.875400000000     0.138800000000     0.253900000000     0.0491365  
H        H      0.717600000000     0.361100000000     0.192600000000     0.0491365  
H        H      0.650700000000     0.411700000000     0.268100000000     0.0491365  
H        H      0.694900000000     0.333500000000     0.339600000000     0.0491365  
H        H      0.523000000000     0.108800000000     0.535500000000     0.0491365  
H        H      0.722400000000     0.890500000000     0.581500000000     0.0491365  
H        H      0.574900000000     0.816500000000     0.618100000000     0.0491365  
H        H      0.397000000000     0.900600000000     0.622200000000     0.0491365  
H        H      0.875400000000     0.861200000000     0.246100000000     0.0491365  
H        H      0.717600000000     0.638900000000     0.307400000000     0.0491365  
H        H      0.650700000000     0.588300000000     0.231900000000     0.0491365  
H        H      0.694900000000     0.666500000000     0.160400000000     0.0491365  
H        H      0.523000000000     0.891200000000     0.964500000000     0.0491365  
H        H      0.722400000000     0.109500000000     0.918500000000     0.0491365  
H        H      0.574900000000     0.183500000000     0.881900000000     0.0491365  
H        H      0.397000000000     0.099400000000     0.877800000000     0.0491365  
C        C      0.206600000000     0.776500000000     0.694600000000     0.0595263  
C        C      0.171200000000     0.804300000000     0.742600000000     0.0595263  
C        C      0.195300000000     0.760200000000     0.784500000000     0.0595263  
C        C      0.264000000000     0.674600000000     0.779300000000     0.0595263  
C        C      0.302000000000     0.644700000000     0.734500000000     0.0595263  
C        C      0.276000000000     0.691300000000     0.691400000000     0.0595263  
C        C      0.173200000000     0.827600000000     0.651700000000     0.0595263  
C        C      0.157700000000     0.798100000000     0.835700000000     0.0595263  
C        C      0.556800000000     0.988800000000     0.420400000000     0.0595263  
C        C      0.466800000000     0.948500000000     0.446400000000     0.0595263  
C        C      0.361500000000     0.994900000000     0.444800000000     0.0595263  
C        C      0.349300000000     0.079800000000     0.419700000000     0.0595263  
C        C      0.434900000000     0.122300000000     0.396900000000     0.0595263  
C        C      0.542700000000     0.073200000000     0.395700000000     0.0595263  
C        C      0.670300000000     0.943100000000     0.424200000000     0.0595263  
C        C      0.269100000000     0.952600000000     0.473900000000     0.0595263  
C        C      0.206600000000     0.223500000000     0.805400000000     0.0595263  
C        C      0.171200000000     0.195700000000     0.757400000000     0.0595263  
C        C      0.195300000000     0.239800000000     0.715500000000     0.0595263  
C        C      0.264000000000     0.325400000000     0.720700000000     0.0595263  
C        C      0.302000000000     0.355300000000     0.765500000000     0.0595263  
C        C      0.276000000000     0.308700000000     0.808600000000     0.0595263  
C        C      0.173200000000     0.172400000000     0.848300000000     0.0595263  
C        C      0.157700000000     0.201900000000     0.664300000000     0.0595263  
C        C      0.556800000000     0.011200000000     0.079600000000     0.0595263  
C        C      0.466800000000     0.051500000000     0.053600000000     0.0595263  
C        C      0.361500000000     0.005100000000     0.055200000000     0.0595263  
C        C      0.349300000000     0.920200000000     0.080300000000     0.0595263  
C        C      0.434900000000     0.877700000000     0.103100000000     0.0595263  
C        C      0.542700000000     0.926800000000     0.104300000000     0.0595263  
C        C      0.670300000000     0.056900000000     0.075800000000     0.0595263  
C        C      0.269100000000     0.047400000000     0.026100000000     0.0595263  
C        C      0.793400000000     0.223500000000     0.305400000000     0.0595263  
C        C      0.828800000000     0.195700000000     0.257400000000     0.0595263  
C        C      0.804700000000     0.239800000000     0.215500000000     0.0595263  
C        C      0.736000000000     0.325400000000     0.220700000000     0.0595263  
C        C      0.698000000000     0.355300000000     0.265500000000     0.0595263  
C        C      0.724000000000     0.308700000000     0.308600000000     0.0595263  
C        C      0.826800000000     0.172400000000     0.348300000000     0.0595263  
C        C      0.842300000000     0.201900000000     0.164300000000     0.0595263  
C        C      0.443200000000     0.011200000000     0.579600000000     0.0595263  
C        C      0.533200000000     0.051500000000     0.553600000000     0.0595263  
C        C      0.638500000000     0.005100000000     0.555200000000     0.0595263  
C        C      0.650700000000     0.920200000000     0.580300000000     0.0595263  
C        C      0.565100000000     0.877700000000     0.603100000000     0.0595263  
C        C      0.457300000000     0.926800000000     0.604300000000     0.0595263  
C        C      0.329700000000     0.056900000000     0.575800000000     0.0595263  
C        C      0.730900000000     0.047400000000     0.526100000000     0.0595263  
C        C      0.793400000000     0.776500000000     0.194600000000     0.0595263  
C        C      0.828800000000     0.804300000000     0.242600000000     0.0595263  
C        C      0.804700000000     0.760200000000     0.284500000000     0.0595263  
C        C      0.736000000000     0.674600000000     0.279300000000     0.0595263  
C        C      0.698000000000     0.644700000000     0.234500000000     0.0595263  
C        C      0.724000000000     0.691300000000     0.191400000000     0.0595263  
C        C      0.826800000000     0.827600000000     0.151700000000     0.0595263  
C        C      0.842300000000     0.798100000000     0.335700000000     0.0595263  
C        C      0.443200000000     0.988800000000     0.920400000000     0.0595263  
C        C      0.533200000000     0.948500000000     0.946400000000     0.0595263  
C        C      0.638500000000     0.994900000000     0.944800000000     0.0595263  
C        C      0.650700000000     0.079800000000     0.919700000000     0.0595263  
C        C      0.565100000000     0.122300000000     0.896900000000     0.0595263  
C        C      0.457300000000     0.073200000000     0.895700000000     0.0595263  
C        C      0.329700000000     0.943100000000     0.924200000000     0.0595263  
C        C      0.730900000000     0.952600000000     0.973900000000     0.0595263  
O        O      0.110500000000     0.901900000000     0.656600000000    -0.285686   
O        O      0.208700000000     0.791800000000     0.609600000000    -0.285686   
O        O      0.096100000000     0.873900000000     0.835000000000    -0.285686   
O        O      0.183700000000     0.753900000000     0.872600000000    -0.285686   
O        O      0.680000000000     0.864400000000     0.447800000000    -0.285686   
O        O      0.750700000000     0.986000000000     0.402300000000    -0.285686   
O        O      0.290800000000     0.886700000000     0.503400000000    -0.285686   
O        O      0.171400000000     0.988600000000     0.467700000000    -0.285686   
O        O      0.954300000000     0.893000000000     0.446200000000    -0.285686   
O        O      0.042400000000     0.904300000000     0.552600000000    -0.285686   
O        O      0.110500000000     0.098100000000     0.843400000000    -0.285686   
O        O      0.208700000000     0.208200000000     0.890400000000    -0.285686   
O        O      0.096100000000     0.126100000000     0.665000000000    -0.285686   
O        O      0.183700000000     0.246100000000     0.627400000000    -0.285686   
O        O      0.680000000000     0.135600000000     0.052200000000    -0.285686   
O        O      0.750700000000     0.014000000000     0.097700000000    -0.285686   
O        O      0.290800000000     0.113300000000     0.996600000000    -0.285686   
O        O      0.171400000000     0.011400000000     0.032300000000    -0.285686   
O        O      0.954300000000     0.107000000000     0.053800000000    -0.285686   
O        O      0.042400000000     0.095700000000     0.947400000000    -0.285686   
O        O      0.889500000000     0.098100000000     0.343400000000    -0.285686   
O        O      0.791300000000     0.208200000000     0.390400000000    -0.285686   
O        O      0.903900000000     0.126100000000     0.165000000000    -0.285686   
O        O      0.816300000000     0.246100000000     0.127400000000    -0.285686   
O        O      0.320000000000     0.135600000000     0.552200000000    -0.285686   
O        O      0.249300000000     0.014000000000     0.597700000000    -0.285686   
O        O      0.709200000000     0.113300000000     0.496600000000    -0.285686   
O        O      0.828600000000     0.011400000000     0.532300000000    -0.285686   
O        O      0.045700000000     0.107000000000     0.553800000000    -0.285686   
O        O      0.957600000000     0.095700000000     0.447400000000    -0.285686   
O        O      0.889500000000     0.901900000000     0.156600000000    -0.285686   
O        O      0.791300000000     0.791800000000     0.109600000000    -0.285686   
O        O      0.903900000000     0.873900000000     0.335000000000    -0.285686   
O        O      0.816300000000     0.753900000000     0.372600000000    -0.285686   
O        O      0.320000000000     0.864400000000     0.947800000000    -0.285686   
O        O      0.249300000000     0.986000000000     0.902300000000    -0.285686   
O        O      0.709200000000     0.886700000000     0.003400000000    -0.285686   
O        O      0.828600000000     0.988600000000     0.967700000000    -0.285686   
O        O      0.045700000000     0.893000000000     0.946200000000    -0.285686   
O        O      0.957600000000     0.904300000000     0.052600000000    -0.285686   


