data_LUPHIN_original

_audit_creation_method RASPA-1.0
_audit_creation_date 2022-1-31
_audit_author_name 'Felipe Lopes de Oliveira <felipe.lopes.oliveira@ibm.com>'

_cell_length_a    9.9045
_cell_length_b    12.3011
_cell_length_c    17.322
_cell_angle_alpha 90
_cell_angle_beta  103.701
_cell_angle_gamma 90
_cell_volume      2050.39

_symmetry_cell_setting          triclinic
_symmetry_space_group_name_Hall 'P 1'
_symmetry_space_group_name_H-M  'P 1'
_symmetry_Int_Tables_number     1

_symmetry_equiv_pos_as_xyz 'x,y,z'

loop_
_atom_site_label
_atom_site_type_symbol
_atom_site_fract_x
_atom_site_fract_y
_atom_site_fract_z
_atom_site_charge
Fe       Fe     0.244400000000     0.422700000000     0.778700000000     1.05303    
Fe       Fe     0.437500000000     0.474200000000     0.629200000000     1.05303    
Fe       Fe     0.132500000000     0.647400000000     0.075300000000     1.05303    
Fe       Fe     0.969100000000     0.610400000000     0.709300000000     1.05303    
Fe       Fe     0.255600000000     0.922700000000     0.721300000000     1.05303    
Fe       Fe     0.062500000000     0.974200000000     0.870800000000     1.05303    
Fe       Fe     0.367500000000     0.147400000000     0.424700000000     1.05303    
Fe       Fe     0.530900000000     0.110400000000     0.790700000000     1.05303    
Fe       Fe     0.755600000000     0.577300000000     0.221300000000     1.05303    
Fe       Fe     0.562500000000     0.525800000000     0.370800000000     1.05303    
Fe       Fe     0.867500000000     0.352600000000     0.924700000000     1.05303    
Fe       Fe     0.030900000000     0.389600000000     0.290700000000     1.05303    
Fe       Fe     0.744400000000     0.077300000000     0.278700000000     1.05303    
Fe       Fe     0.937500000000     0.025800000000     0.129200000000     1.05303    
Fe       Fe     0.632500000000     0.852600000000     0.575300000000     1.05303    
Fe       Fe     0.469100000000     0.889600000000     0.209300000000     1.05303    
P        P      0.699900000000     0.585800000000     0.559400000000     0.581795   
P        P      0.220700000000     0.155100000000     0.795800000000     0.581795   
P        P      0.562200000000     0.375400000000     0.808000000000     0.581795   
P        P      0.085700000000     0.542300000000     0.893800000000     0.581795   
P        P      0.800100000000     0.085800000000     0.940600000000     0.581795   
P        P      0.279300000000     0.655100000000     0.704200000000     0.581795   
P        P      0.937800000000     0.875400000000     0.692000000000     0.581795   
P        P      0.414300000000     0.042300000000     0.606200000000     0.581795   
P        P      0.300100000000     0.414200000000     0.440600000000     0.581795   
P        P      0.779300000000     0.844900000000     0.204200000000     0.581795   
P        P      0.437800000000     0.624600000000     0.192000000000     0.581795   
P        P      0.914300000000     0.457700000000     0.106200000000     0.581795   
P        P      0.199900000000     0.914200000000     0.059400000000     0.581795   
P        P      0.720700000000     0.344900000000     0.295800000000     0.581795   
P        P      0.062200000000     0.124600000000     0.308000000000     0.581795   
P        P      0.585700000000     0.957700000000     0.393800000000     0.581795   
O        O      0.428800000000     0.382800000000     0.837500000000    -0.340581   
O        O      0.172800000000     0.271000000000     0.768400000000    -0.340581   
O        O      0.189300000000     0.453500000000     0.880400000000    -0.340581   
O        O      0.190600000000     0.076800000000     0.724500000000    -0.340581   
O        O      0.599300000000     0.539200000000     0.604200000000    -0.340581   
O        O      0.684000000000     0.529400000000     0.479200000000    -0.340581   
O        O      0.135800000000     0.120300000000     0.856200000000    -0.340581   
O        O      0.556500000000     0.452900000000     0.737900000000    -0.340581   
O        O      0.146400000000     0.600600000000     0.971200000000    -0.340581   
O        O      0.671500000000     0.707300000000     0.544700000000    -0.340581   
O        O      0.948300000000     0.487700000000     0.897100000000    -0.340581   
O        O      0.682700000000     0.411000000000     0.877600000000    -0.340581   
O        O      0.591800000000     0.260000000000     0.784400000000    -0.340581   
O        O      0.849400000000     0.569900000000     0.607000000000    -0.340581   
O        O      0.375900000000     0.152000000000     0.836700000000    -0.340581   
O        O      0.057500000000     0.624700000000     0.825900000000    -0.340581   
O        O      0.071200000000     0.882800000000     0.662500000000    -0.340581   
O        O      0.327200000000     0.771000000000     0.731600000000    -0.340581   
O        O      0.310700000000     0.953500000000     0.619600000000    -0.340581   
O        O      0.309400000000     0.576800000000     0.775500000000    -0.340581   
O        O      0.900700000000     0.039200000000     0.895800000000    -0.340581   
O        O      0.816000000000     0.029400000000     0.020800000000    -0.340581   
O        O      0.364200000000     0.620300000000     0.643800000000    -0.340581   
O        O      0.943500000000     0.952900000000     0.762100000000    -0.340581   
O        O      0.353600000000     0.100600000000     0.528800000000    -0.340581   
O        O      0.828500000000     0.207300000000     0.955300000000    -0.340581   
O        O      0.551700000000     0.987700000000     0.602900000000    -0.340581   
O        O      0.817300000000     0.911000000000     0.622400000000    -0.340581   
O        O      0.908200000000     0.760000000000     0.715600000000    -0.340581   
O        O      0.650600000000     0.069900000000     0.893000000000    -0.340581   
O        O      0.124100000000     0.652000000000     0.663300000000    -0.340581   
O        O      0.442500000000     0.124700000000     0.674100000000    -0.340581   
O        O      0.571200000000     0.617200000000     0.162500000000    -0.340581   
O        O      0.827200000000     0.729000000000     0.231600000000    -0.340581   
O        O      0.810700000000     0.546500000000     0.119600000000    -0.340581   
O        O      0.809400000000     0.923200000000     0.275500000000    -0.340581   
O        O      0.400700000000     0.460800000000     0.395800000000    -0.340581   
O        O      0.316000000000     0.470600000000     0.520800000000    -0.340581   
O        O      0.864200000000     0.879700000000     0.143800000000    -0.340581   
O        O      0.443500000000     0.547100000000     0.262100000000    -0.340581   
O        O      0.853600000000     0.399400000000     0.028800000000    -0.340581   
O        O      0.328500000000     0.292700000000     0.455300000000    -0.340581   
O        O      0.051700000000     0.512300000000     0.102900000000    -0.340581   
O        O      0.317300000000     0.589000000000     0.122400000000    -0.340581   
O        O      0.408200000000     0.740000000000     0.215600000000    -0.340581   
O        O      0.150600000000     0.430100000000     0.393000000000    -0.340581   
O        O      0.624100000000     0.848000000000     0.163300000000    -0.340581   
O        O      0.942500000000     0.375300000000     0.174100000000    -0.340581   
O        O      0.928800000000     0.117200000000     0.337500000000    -0.340581   
O        O      0.672800000000     0.229000000000     0.268400000000    -0.340581   
O        O      0.689300000000     0.046500000000     0.380400000000    -0.340581   
O        O      0.690600000000     0.423200000000     0.224500000000    -0.340581   
O        O      0.099300000000     0.960800000000     0.104200000000    -0.340581   
O        O      0.184000000000     0.970600000000     0.979200000000    -0.340581   
O        O      0.635800000000     0.379700000000     0.356200000000    -0.340581   
O        O      0.056500000000     0.047100000000     0.237900000000    -0.340581   
O        O      0.646400000000     0.899400000000     0.471200000000    -0.340581   
O        O      0.171500000000     0.792700000000     0.044700000000    -0.340581   
O        O      0.448300000000     0.012300000000     0.397100000000    -0.340581   
O        O      0.182700000000     0.089000000000     0.377600000000    -0.340581   
O        O      0.091800000000     0.240000000000     0.284400000000    -0.340581   
O        O      0.349400000000     0.930100000000     0.107000000000    -0.340581   
O        O      0.875900000000     0.348000000000     0.336700000000    -0.340581   
O        O      0.557500000000     0.875300000000     0.325900000000    -0.340581   
F        F      0.285500000000     0.406200000000     0.672000000000    -0.545003   
F        F      0.050400000000     0.461400000000     0.721200000000    -0.545003   
F        F      0.214500000000     0.906200000000     0.828000000000    -0.545003   
F        F      0.449600000000     0.961400000000     0.778800000000    -0.545003   
F        F      0.714500000000     0.593800000000     0.328000000000    -0.545003   
F        F      0.949600000000     0.538600000000     0.278800000000    -0.545003   
F        F      0.785500000000     0.093800000000     0.172000000000    -0.545003   
F        F      0.550400000000     0.038600000000     0.221200000000    -0.545003   


