data_LUPTAS_original

_audit_creation_method RASPA-1.0
_audit_creation_date 2022-1-30
_audit_author_name 'Felipe Lopes de Oliveira <felipe.lopes.oliveira@ibm.com>'

_cell_length_a    10.0848
_cell_length_b    16.211
_cell_length_c    19.368
_cell_angle_alpha 114.701
_cell_angle_beta  90
_cell_angle_gamma 90
_cell_volume      2876.65

_symmetry_cell_setting          triclinic
_symmetry_space_group_name_Hall 'P 1'
_symmetry_space_group_name_H-M  'P 1'
_symmetry_Int_Tables_number     1

_symmetry_equiv_pos_as_xyz 'x,y,z'

loop_
_atom_site_label
_atom_site_type_symbol
_atom_site_fract_x
_atom_site_fract_y
_atom_site_fract_z
_atom_site_charge
Zn       Zn     0.028080000000     0.681540000000     0.546840000000     0.401579   
Zn       Zn     0.020000000000     0.336090000000     0.990100000000     0.401579   
Zn       Zn     0.528080000000     0.818460000000     0.453160000000     0.401579   
Zn       Zn     0.520000000000     0.163910000000     0.009900000000     0.401579   
Zn       Zn     0.971920000000     0.318460000000     0.453160000000     0.401579   
Zn       Zn     0.980000000000     0.663910000000     0.009900000000     0.401579   
Zn       Zn     0.471920000000     0.181540000000     0.546840000000     0.401579   
Zn       Zn     0.480000000000     0.836090000000     0.990100000000     0.401579   
H        H      0.295800000000     0.540100000000     0.966800000000     0.0717349  
H        H      0.974900000000     0.588700000000     0.645100000000     0.0717349  
H        H      0.726800000000     0.733400000000     0.583400000000     0.0717349  
H        H      0.619500000000     0.331300000000     0.773700000000     0.0717349  
H        H      0.977200000000     0.412100000000     0.871000000000     0.0717349  
H        H      0.588400000000     0.596100000000     0.699200000000     0.0717349  
H        H      0.552800000000     0.695400000000     0.641800000000     0.0717349  
H        H      0.761200000000     0.248700000000     0.929100000000     0.0717349  
H        H      0.592300000000     0.249800000000     0.849300000000     0.0717349  
H        H      0.592700000000     0.564700000000     0.779700000000     0.0717349  
H        H      0.597800000000     0.502700000000     0.820900000000     0.0717349  
H        H      0.168200000000     0.972300000000     0.570000000000     0.0717349  
H        H      0.795800000000     0.959900000000     0.033200000000     0.0717349  
H        H      0.474900000000     0.911300000000     0.354900000000     0.0717349  
H        H      0.226800000000     0.766600000000     0.416600000000     0.0717349  
H        H      0.119500000000     0.168700000000     0.226300000000     0.0717349  
H        H      0.477200000000     0.087900000000     0.129000000000     0.0717349  
H        H      0.088400000000     0.903900000000     0.300800000000     0.0717349  
H        H      0.052800000000     0.804600000000     0.358200000000     0.0717349  
H        H      0.261200000000     0.251300000000     0.070900000000     0.0717349  
H        H      0.092300000000     0.250200000000     0.150700000000     0.0717349  
H        H      0.092700000000     0.935300000000     0.220300000000     0.0717349  
H        H      0.097800000000     0.997300000000     0.179100000000     0.0717349  
H        H      0.668200000000     0.527700000000     0.430000000000     0.0717349  
H        H      0.704200000000     0.459900000000     0.033200000000     0.0717349  
H        H      0.025100000000     0.411300000000     0.354900000000     0.0717349  
H        H      0.273200000000     0.266600000000     0.416600000000     0.0717349  
H        H      0.380500000000     0.668700000000     0.226300000000     0.0717349  
H        H      0.022800000000     0.587900000000     0.129000000000     0.0717349  
H        H      0.411600000000     0.403900000000     0.300800000000     0.0717349  
H        H      0.447200000000     0.304600000000     0.358200000000     0.0717349  
H        H      0.238800000000     0.751300000000     0.070900000000     0.0717349  
H        H      0.407700000000     0.750200000000     0.150700000000     0.0717349  
H        H      0.407300000000     0.435300000000     0.220300000000     0.0717349  
H        H      0.402200000000     0.497300000000     0.179100000000     0.0717349  
H        H      0.831800000000     0.027700000000     0.430000000000     0.0717349  
H        H      0.204200000000     0.040100000000     0.966800000000     0.0717349  
H        H      0.525100000000     0.088700000000     0.645100000000     0.0717349  
H        H      0.773200000000     0.233400000000     0.583400000000     0.0717349  
H        H      0.880500000000     0.831300000000     0.773700000000     0.0717349  
H        H      0.522800000000     0.912100000000     0.871000000000     0.0717349  
H        H      0.911600000000     0.096100000000     0.699200000000     0.0717349  
H        H      0.947200000000     0.195400000000     0.641800000000     0.0717349  
H        H      0.738800000000     0.748700000000     0.929100000000     0.0717349  
H        H      0.907700000000     0.749800000000     0.849300000000     0.0717349  
H        H      0.907300000000     0.064700000000     0.779700000000     0.0717349  
H        H      0.902200000000     0.002700000000     0.820900000000     0.0717349  
H        H      0.331800000000     0.472300000000     0.570000000000     0.0717349  
C        C      0.379000000000     0.523600000000     0.980300000000     0.0569904  
C        C      0.385500000000     0.451300000000     0.000500000000     0.0569904  
C        C      0.973400000000     0.867200000000     0.564900000000     0.0569904  
C        C      0.887200000000     0.609100000000     0.643400000000     0.0569904  
C        C      0.259600000000     0.406300000000     0.007400000000     0.0569904  
C        C      0.786100000000     0.580100000000     0.676800000000     0.0569904  
C        C      0.742700000000     0.694700000000     0.608200000000     0.0569904  
C        C      0.802900000000     0.379200000000     0.814500000000     0.0569904  
C        C      0.687200000000     0.331300000000     0.807900000000     0.0569904  
C        C      0.832200000000     0.425600000000     0.766400000000     0.0569904  
C        C      0.898000000000     0.378300000000     0.865900000000     0.0569904  
C        C      0.660000000000     0.613300000000     0.676200000000     0.0569904  
C        C      0.638800000000     0.671500000000     0.641900000000     0.0569904  
C        C      0.822300000000     0.513400000000     0.705700000000     0.0569904  
C        C      0.771600000000     0.283700000000     0.900500000000     0.0569904  
C        C      0.671500000000     0.282900000000     0.852400000000     0.0569904  
C        C      0.980300000000     0.936400000000     0.531100000000     0.0569904  
C        C      0.877900000000     0.954700000000     0.490200000000     0.0569904  
C        C      0.744000000000     0.908900000000     0.480400000000     0.0569904  
C        C      0.507300000000     0.426800000000     0.020700000000     0.0569904  
C        C      0.525800000000     0.345600000000     0.039200000000     0.0569904  
C        C      0.099900000000     0.983100000000     0.541100000000     0.0569904  
C        C      0.879000000000     0.976400000000     0.019700000000     0.0569904  
C        C      0.885500000000     0.048700000000     0.999500000000     0.0569904  
C        C      0.473400000000     0.632800000000     0.435100000000     0.0569904  
C        C      0.387200000000     0.890900000000     0.356600000000     0.0569904  
C        C      0.759600000000     0.093700000000     0.992600000000     0.0569904  
C        C      0.286100000000     0.919900000000     0.323200000000     0.0569904  
C        C      0.242700000000     0.805300000000     0.391800000000     0.0569904  
C        C      0.302900000000     0.120800000000     0.185500000000     0.0569904  
C        C      0.187200000000     0.168700000000     0.192100000000     0.0569904  
C        C      0.332200000000     0.074400000000     0.233600000000     0.0569904  
C        C      0.398000000000     0.121700000000     0.134100000000     0.0569904  
C        C      0.160000000000     0.886700000000     0.323800000000     0.0569904  
C        C      0.138800000000     0.828500000000     0.358100000000     0.0569904  
C        C      0.322300000000     0.986600000000     0.294300000000     0.0569904  
C        C      0.271600000000     0.216300000000     0.099500000000     0.0569904  
C        C      0.171500000000     0.217100000000     0.147600000000     0.0569904  
C        C      0.480300000000     0.563600000000     0.468900000000     0.0569904  
C        C      0.377900000000     0.545300000000     0.509800000000     0.0569904  
C        C      0.244000000000     0.591100000000     0.519600000000     0.0569904  
C        C      0.007300000000     0.073200000000     0.979300000000     0.0569904  
C        C      0.025800000000     0.154400000000     0.960800000000     0.0569904  
C        C      0.599900000000     0.516900000000     0.458900000000     0.0569904  
C        C      0.621000000000     0.476400000000     0.019700000000     0.0569904  
C        C      0.614500000000     0.548700000000     0.999500000000     0.0569904  
C        C      0.026600000000     0.132800000000     0.435100000000     0.0569904  
C        C      0.112800000000     0.390900000000     0.356600000000     0.0569904  
C        C      0.740400000000     0.593700000000     0.992600000000     0.0569904  
C        C      0.213900000000     0.419900000000     0.323200000000     0.0569904  
C        C      0.257300000000     0.305300000000     0.391800000000     0.0569904  
C        C      0.197100000000     0.620800000000     0.185500000000     0.0569904  
C        C      0.312800000000     0.668700000000     0.192100000000     0.0569904  
C        C      0.167800000000     0.574400000000     0.233600000000     0.0569904  
C        C      0.102000000000     0.621700000000     0.134100000000     0.0569904  
C        C      0.340000000000     0.386700000000     0.323800000000     0.0569904  
C        C      0.361200000000     0.328500000000     0.358100000000     0.0569904  
C        C      0.177700000000     0.486600000000     0.294300000000     0.0569904  
C        C      0.228400000000     0.716300000000     0.099500000000     0.0569904  
C        C      0.328500000000     0.717100000000     0.147600000000     0.0569904  
C        C      0.019700000000     0.063600000000     0.468900000000     0.0569904  
C        C      0.122100000000     0.045300000000     0.509800000000     0.0569904  
C        C      0.256000000000     0.091100000000     0.519600000000     0.0569904  
C        C      0.492700000000     0.573200000000     0.979300000000     0.0569904  
C        C      0.474200000000     0.654400000000     0.960800000000     0.0569904  
C        C      0.900100000000     0.016900000000     0.458900000000     0.0569904  
C        C      0.121000000000     0.023600000000     0.980300000000     0.0569904  
C        C      0.114500000000     0.951300000000     0.000500000000     0.0569904  
C        C      0.526600000000     0.367200000000     0.564900000000     0.0569904  
C        C      0.612800000000     0.109100000000     0.643400000000     0.0569904  
C        C      0.240400000000     0.906300000000     0.007400000000     0.0569904  
C        C      0.713900000000     0.080100000000     0.676800000000     0.0569904  
C        C      0.757300000000     0.194700000000     0.608200000000     0.0569904  
C        C      0.697100000000     0.879200000000     0.814500000000     0.0569904  
C        C      0.812800000000     0.831300000000     0.807900000000     0.0569904  
C        C      0.667800000000     0.925600000000     0.766400000000     0.0569904  
C        C      0.602000000000     0.878300000000     0.865900000000     0.0569904  
C        C      0.840000000000     0.113300000000     0.676200000000     0.0569904  
C        C      0.861200000000     0.171500000000     0.641900000000     0.0569904  
C        C      0.677700000000     0.013400000000     0.705700000000     0.0569904  
C        C      0.728400000000     0.783700000000     0.900500000000     0.0569904  
C        C      0.828500000000     0.782900000000     0.852400000000     0.0569904  
C        C      0.519700000000     0.436400000000     0.531100000000     0.0569904  
C        C      0.622100000000     0.454700000000     0.490200000000     0.0569904  
C        C      0.756000000000     0.408900000000     0.480400000000     0.0569904  
C        C      0.992700000000     0.926800000000     0.020700000000     0.0569904  
C        C      0.974200000000     0.845600000000     0.039200000000     0.0569904  
C        C      0.400100000000     0.483100000000     0.541100000000     0.0569904  
N        N      0.866700000000     0.664300000000     0.609000000000    -0.134825   
N        N      0.883200000000     0.331600000000     0.909100000000    -0.134825   
N        N      0.939900000000     0.411700000000     0.724300000000    -0.134825   
N        N      0.934000000000     0.466300000000     0.687100000000    -0.134825   
N        N      0.755300000000     0.488600000000     0.755300000000    -0.134825   
N        N      0.633600000000     0.522800000000     0.789500000000    -0.134825   
N        N      0.366700000000     0.835700000000     0.391000000000    -0.134825   
N        N      0.383200000000     0.168400000000     0.090900000000    -0.134825   
N        N      0.439900000000     0.088300000000     0.275700000000    -0.134825   
N        N      0.434000000000     0.033700000000     0.312900000000    -0.134825   
N        N      0.255300000000     0.011400000000     0.244700000000    -0.134825   
N        N      0.133600000000     0.977200000000     0.210500000000    -0.134825   
N        N      0.133300000000     0.335700000000     0.391000000000    -0.134825   
N        N      0.116800000000     0.668400000000     0.090900000000    -0.134825   
N        N      0.060100000000     0.588300000000     0.275700000000    -0.134825   
N        N      0.066000000000     0.533700000000     0.312900000000    -0.134825   
N        N      0.244700000000     0.511400000000     0.244700000000    -0.134825   
N        N      0.366400000000     0.477200000000     0.210500000000    -0.134825   
N        N      0.633300000000     0.164300000000     0.609000000000    -0.134825   
N        N      0.616800000000     0.831600000000     0.909100000000    -0.134825   
N        N      0.560100000000     0.911700000000     0.724300000000    -0.134825   
N        N      0.566000000000     0.966300000000     0.687100000000    -0.134825   
N        N      0.744700000000     0.988600000000     0.755300000000    -0.134825   
N        N      0.866400000000     0.022800000000     0.789500000000    -0.134825   
O        O      0.989900000000     0.785300000000     0.518300000000    -0.263602   
O        O      0.242400000000     0.385500000000     0.061700000000    -0.263602   
O        O      0.967200000000     0.896000000000     0.634800000000    -0.263602   
O        O      0.168700000000     0.392300000000     0.958800000000    -0.263602   
O        O      0.722000000000     0.851500000000     0.505900000000    -0.263602   
O        O      0.655300000000     0.930300000000     0.444100000000    -0.263602   
O        O      0.490100000000     0.269800000000     0.988000000000    -0.263602   
O        O      0.576200000000     0.353900000000     0.098600000000    -0.263602   
O        O      0.489900000000     0.714700000000     0.481700000000    -0.263602   
O        O      0.742400000000     0.114500000000     0.938300000000    -0.263602   
O        O      0.467200000000     0.604000000000     0.365200000000    -0.263602   
O        O      0.668700000000     0.107700000000     0.041200000000    -0.263602   
O        O      0.222000000000     0.648500000000     0.494100000000    -0.263602   
O        O      0.155300000000     0.569700000000     0.555900000000    -0.263602   
O        O      0.990100000000     0.230200000000     0.012000000000    -0.263602   
O        O      0.076200000000     0.146100000000     0.901400000000    -0.263602   
O        O      0.010100000000     0.214700000000     0.481700000000    -0.263602   
O        O      0.757600000000     0.614500000000     0.938300000000    -0.263602   
O        O      0.032800000000     0.104000000000     0.365200000000    -0.263602   
O        O      0.831300000000     0.607700000000     0.041200000000    -0.263602   
O        O      0.278000000000     0.148500000000     0.494100000000    -0.263602   
O        O      0.344700000000     0.069700000000     0.555900000000    -0.263602   
O        O      0.509900000000     0.730200000000     0.012000000000    -0.263602   
O        O      0.423800000000     0.646100000000     0.901400000000    -0.263602   
O        O      0.510100000000     0.285300000000     0.518300000000    -0.263602   
O        O      0.257600000000     0.885500000000     0.061700000000    -0.263602   
O        O      0.532800000000     0.396000000000     0.634800000000    -0.263602   
O        O      0.331300000000     0.892300000000     0.958800000000    -0.263602   
O        O      0.778000000000     0.351500000000     0.505900000000    -0.263602   
O        O      0.844700000000     0.430300000000     0.444100000000    -0.263602   
O        O      0.009900000000     0.769800000000     0.988000000000    -0.263602   
O        O      0.923800000000     0.853900000000     0.098600000000    -0.263602   


