data_MAGBAZ_original

_audit_creation_method RASPA-1.0
_audit_creation_date 2022-1-28
_audit_author_name 'Felipe Lopes de Oliveira <felipe.lopes.oliveira@ibm.com>'

_cell_length_a    9.866
_cell_length_b    13.963
_cell_length_c    15.449
_cell_angle_alpha 90
_cell_angle_beta  90
_cell_angle_gamma 90
_cell_volume      2128.24

_symmetry_cell_setting          triclinic
_symmetry_space_group_name_Hall 'P 1'
_symmetry_space_group_name_H-M  'P 1'
_symmetry_Int_Tables_number     1

_symmetry_equiv_pos_as_xyz 'x,y,z'

loop_
_atom_site_label
_atom_site_type_symbol
_atom_site_fract_x
_atom_site_fract_y
_atom_site_fract_z
_atom_site_charge
Zn       Zn     0.597210000000     0.904090000000     0.902280000000     0.511139   
Zn       Zn     0.902790000000     0.595910000000     0.402280000000     0.511139   
Zn       Zn     0.402790000000     0.095910000000     0.097720000000     0.511139   
Zn       Zn     0.097210000000     0.404090000000     0.597720000000     0.511139   
P        P      0.380920000000     0.070910000000     0.894680000000     0.398478   
P        P      0.119080000000     0.429090000000     0.394680000000     0.398478   
P        P      0.619080000000     0.929090000000     0.105320000000     0.398478   
P        P      0.880920000000     0.570910000000     0.605320000000     0.398478   
H        H      0.123100000000     0.971800000000     0.918200000000     0.0748052  
H        H      0.873400000000     0.089600000000     0.742100000000     0.0748052  
H        H      0.254900000000     0.186100000000     0.768000000000     0.0748052  
H        H      0.376900000000     0.528200000000     0.418200000000     0.0748052  
H        H      0.626600000000     0.410400000000     0.242100000000     0.0748052  
H        H      0.245100000000     0.313900000000     0.268000000000     0.0748052  
H        H      0.876900000000     0.028200000000     0.081800000000     0.0748052  
H        H      0.126600000000     0.910400000000     0.257900000000     0.0748052  
H        H      0.745100000000     0.813900000000     0.232000000000     0.0748052  
H        H      0.623100000000     0.471800000000     0.581800000000     0.0748052  
H        H      0.373400000000     0.589600000000     0.757900000000     0.0748052  
H        H      0.754900000000     0.686100000000     0.732000000000     0.0748052  
C        C      0.212200000000     0.075800000000     0.848100000000     0.0634082  
C        C      0.107700000000     0.015700000000     0.874000000000     0.0634082  
C        C      0.980000000000     0.019600000000     0.835200000000     0.0634082  
C        C      0.957600000000     0.086500000000     0.769000000000     0.0634082  
C        C      0.061200000000     0.148300000000     0.743300000000     0.0634082  
C        C      0.186900000000     0.143500000000     0.783900000000     0.0634082  
C        C      0.869700000000     0.950400000000     0.861600000000     0.0634082  
C        C      0.042000000000     0.219400000000     0.670400000000     0.0634082  
C        C      0.287800000000     0.424200000000     0.348100000000     0.0634082  
C        C      0.392300000000     0.484300000000     0.374000000000     0.0634082  
C        C      0.520000000000     0.480400000000     0.335200000000     0.0634082  
C        C      0.542400000000     0.413500000000     0.269000000000     0.0634082  
C        C      0.438800000000     0.351700000000     0.243300000000     0.0634082  
C        C      0.313100000000     0.356500000000     0.283900000000     0.0634082  
C        C      0.630300000000     0.549600000000     0.361600000000     0.0634082  
C        C      0.458000000000     0.280600000000     0.170400000000     0.0634082  
C        C      0.787800000000     0.924200000000     0.151900000000     0.0634082  
C        C      0.892300000000     0.984300000000     0.126000000000     0.0634082  
C        C      0.020000000000     0.980400000000     0.164800000000     0.0634082  
C        C      0.042400000000     0.913500000000     0.231000000000     0.0634082  
C        C      0.938800000000     0.851700000000     0.256700000000     0.0634082  
C        C      0.813100000000     0.856500000000     0.216100000000     0.0634082  
C        C      0.130300000000     0.049600000000     0.138400000000     0.0634082  
C        C      0.958000000000     0.780600000000     0.329600000000     0.0634082  
C        C      0.712200000000     0.575800000000     0.651900000000     0.0634082  
C        C      0.607700000000     0.515700000000     0.626000000000     0.0634082  
C        C      0.480000000000     0.519600000000     0.664800000000     0.0634082  
C        C      0.457600000000     0.586500000000     0.731000000000     0.0634082  
C        C      0.561200000000     0.648300000000     0.756700000000     0.0634082  
C        C      0.686900000000     0.643500000000     0.716100000000     0.0634082  
C        C      0.369700000000     0.450400000000     0.638400000000     0.0634082  
C        C      0.542000000000     0.719400000000     0.829600000000     0.0634082  
O        O      0.417500000000     0.965460000000     0.907410000000    -0.234471   
O        O      0.373900000000     0.128690000000     0.978230000000    -0.234471   
O        O      0.474200000000     0.119050000000     0.829100000000    -0.234471   
O        O      0.902600000000     0.868200000000     0.880300000000    -0.234471   
O        O      0.750300000000     0.984400000000     0.862130000000    -0.234471   
O        O      0.976700000000     0.196700000000     0.605790000000    -0.234471   
O        O      0.096000000000     0.301120000000     0.683980000000    -0.234471   
O        O      0.082500000000     0.534540000000     0.407410000000    -0.234471   
O        O      0.126100000000     0.371310000000     0.478230000000    -0.234471   
O        O      0.025800000000     0.380950000000     0.329100000000    -0.234471   
O        O      0.597400000000     0.631800000000     0.380300000000    -0.234471   
O        O      0.749700000000     0.515600000000     0.362130000000    -0.234471   
O        O      0.523300000000     0.303300000000     0.105790000000    -0.234471   
O        O      0.404000000000     0.198880000000     0.183980000000    -0.234471   
O        O      0.582500000000     0.034540000000     0.092590000000    -0.234471   
O        O      0.626100000000     0.871310000000     0.021770000000    -0.234471   
O        O      0.525800000000     0.880950000000     0.170900000000    -0.234471   
O        O      0.097400000000     0.131800000000     0.119700000000    -0.234471   
O        O      0.249700000000     0.015600000000     0.137870000000    -0.234471   
O        O      0.023300000000     0.803300000000     0.394210000000    -0.234471   
O        O      0.904000000000     0.698880000000     0.316020000000    -0.234471   
O        O      0.917500000000     0.465460000000     0.592590000000    -0.234471   
O        O      0.873900000000     0.628690000000     0.521770000000    -0.234471   
O        O      0.974200000000     0.619050000000     0.670900000000    -0.234471   
O        O      0.402600000000     0.368200000000     0.619700000000    -0.234471   
O        O      0.250300000000     0.484400000000     0.637870000000    -0.234471   
O        O      0.476700000000     0.696700000000     0.894210000000    -0.234471   
O        O      0.596000000000     0.801120000000     0.816020000000    -0.234471   


