data_MAKXAZ_original

_audit_creation_method RASPA-1.0
_audit_creation_date 2022-1-31
_audit_author_name 'Felipe Lopes de Oliveira <felipe.lopes.oliveira@ibm.com>'

_cell_length_a    6.64
_cell_length_b    13.6261
_cell_length_c    24.4675
_cell_angle_alpha 75.8841
_cell_angle_beta  82.2015
_cell_angle_gamma 75.898
_cell_volume      2075.35

_symmetry_cell_setting          triclinic
_symmetry_space_group_name_Hall 'P 1'
_symmetry_space_group_name_H-M  'P 1'
_symmetry_Int_Tables_number     1

_symmetry_equiv_pos_as_xyz 'x,y,z'

loop_
_atom_site_label
_atom_site_type_symbol
_atom_site_fract_x
_atom_site_fract_y
_atom_site_fract_z
_atom_site_charge
Zn       Zn     0.938470000000     0.902480000000     0.969120000000     0.455793   
Zn       Zn     0.810070000000     0.597520000000     0.530880000000     0.455793   
Zn       Zn     0.061530000000     0.097520000000     0.030880000000     0.455793   
Zn       Zn     0.189930000000     0.402480000000     0.469120000000     0.455793   
H        H      0.440100000000     0.946200000000     0.831000000000     0.0562381  
H        H      0.619600000000     0.031700000000     0.753300000000     0.0562381  
H        H      0.072600000000     0.194300000000     0.690700000000     0.0562381  
H        H      0.893400000000     0.104600000000     0.767200000000     0.0562381  
H        H      0.748600000000     0.075300000000     0.663500000000     0.0562381  
H        H      0.934800000000     0.179000000000     0.596200000000     0.0562381  
H        H      0.433700000000     0.418900000000     0.586500000000     0.0562381  
H        H      0.247500000000     0.315600000000     0.654000000000     0.0562381  
H        H      0.544000000000     0.864100000000     0.924300000000     0.0562381  
H        H      0.427300000000     0.715500000000     0.923900000000     0.0562381  
H        H      0.869600000000     0.540800000000     0.027800000000     0.0562381  
H        H      0.986400000000     0.689200000000     0.028200000000     0.0562381  
H        H      0.683100000000     0.463200000000     0.968200000000     0.0562381  
H        H      0.475500000000     0.535700000000     0.941900000000     0.0562381  
H        H      0.217300000000     0.553800000000     0.669000000000     0.0562381  
H        H      0.404600000000     0.468300000000     0.746700000000     0.0562381  
H        H      0.957600000000     0.305700000000     0.809300000000     0.0562381  
H        H      0.765200000000     0.395400000000     0.732800000000     0.0562381  
H        H      0.487400000000     0.424700000000     0.836500000000     0.0562381  
H        H      0.710000000000     0.321000000000     0.903800000000     0.0562381  
H        H      0.439100000000     0.081100000000     0.913500000000     0.0562381  
H        H      0.217100000000     0.184400000000     0.846000000000     0.0562381  
H        H      0.332400000000     0.635900000000     0.575700000000     0.0562381  
H        H      0.066700000000     0.784500000000     0.576100000000     0.0562381  
H        H      0.438200000000     0.959200000000     0.472200000000     0.0562381  
H        H      0.703800000000     0.810800000000     0.471800000000     0.0562381  
H        H      0.114500000000     0.036800000000     0.531800000000     0.0562381  
H        H      0.953100000000     0.964300000000     0.558100000000     0.0562381  
H        H      0.559900000000     0.053800000000     0.169000000000     0.0562381  
H        H      0.380400000000     0.968300000000     0.246700000000     0.0562381  
H        H      0.927400000000     0.805700000000     0.309300000000     0.0562381  
H        H      0.106600000000     0.895400000000     0.232800000000     0.0562381  
H        H      0.251400000000     0.924700000000     0.336500000000     0.0562381  
H        H      0.065200000000     0.821000000000     0.403800000000     0.0562381  
H        H      0.566300000000     0.581100000000     0.413500000000     0.0562381  
H        H      0.752500000000     0.684400000000     0.346000000000     0.0562381  
H        H      0.456000000000     0.135900000000     0.075700000000     0.0562381  
H        H      0.572700000000     0.284500000000     0.076100000000     0.0562381  
H        H      0.130400000000     0.459200000000     0.972200000000     0.0562381  
H        H      0.013600000000     0.310800000000     0.971800000000     0.0562381  
H        H      0.316900000000     0.536800000000     0.031800000000     0.0562381  
H        H      0.524500000000     0.464300000000     0.058100000000     0.0562381  
H        H      0.782700000000     0.446200000000     0.331000000000     0.0562381  
H        H      0.595400000000     0.531700000000     0.253300000000     0.0562381  
H        H      0.042400000000     0.694300000000     0.190700000000     0.0562381  
H        H      0.234800000000     0.604600000000     0.267200000000     0.0562381  
H        H      0.512600000000     0.575300000000     0.163500000000     0.0562381  
H        H      0.290000000000     0.679000000000     0.096200000000     0.0562381  
H        H      0.560900000000     0.918900000000     0.086500000000     0.0562381  
H        H      0.782900000000     0.815600000000     0.154000000000     0.0562381  
H        H      0.667600000000     0.364100000000     0.424300000000     0.0562381  
H        H      0.933300000000     0.215500000000     0.423900000000     0.0562381  
H        H      0.561800000000     0.040800000000     0.527800000000     0.0562381  
H        H      0.296200000000     0.189200000000     0.528200000000     0.0562381  
H        H      0.885500000000     0.963200000000     0.468200000000     0.0562381  
H        H      0.046900000000     0.035700000000     0.441900000000     0.0562381  
C        C      0.029000000000     0.967480000000     0.858920000000     0.00394526 
C        C      0.147950000000     0.017000000000     0.807300000000     0.00394526 
C        C      0.364840000000     0.996350000000     0.802370000000     0.00394526 
C        C      0.471630000000     0.047960000000     0.756380000000     0.00394526 
C        C      0.365260000000     0.124170000000     0.714110000000     0.00394526 
C        C      0.148300000000     0.143700000000     0.719100000000     0.00394526 
C        C      0.041290000000     0.090580000000     0.764840000000     0.00394526 
C        C      0.480050000000     0.185920000000     0.667380000000     0.00394526 
C        C      0.684790000000     0.145590000000     0.648630000000     0.00394526 
C        C      0.795390000000     0.207340000000     0.608480000000     0.00394526 
C        C      0.705250000000     0.310590000000     0.585710000000     0.00394526 
C        C      0.499230000000     0.349520000000     0.602620000000     0.00394526 
C        C      0.388530000000     0.287840000000     0.642900000000     0.00394526 
C        C      0.828860000000     0.377980000000     0.545100000000     0.00394526 
C        C      0.610100000000     0.798500000000     0.945300000000     0.00394526 
C        C      0.540700000000     0.710300000000     0.945100000000     0.00394526 
C        C      0.637400000000     0.614200000000     0.975800000000     0.00394526 
C        C      0.803500000000     0.606400000000     0.006800000000     0.00394526 
C        C      0.872900000000     0.694600000000     0.007000000000     0.00394526 
C        C      0.561100000000     0.519200000000     0.974400000000     0.00394526 
C        C      0.855400000000     0.532520000000     0.641080000000     0.00394526 
C        C      0.972250000000     0.483000000000     0.692700000000     0.00394526 
C        C      0.163560000000     0.503650000000     0.697630000000     0.00394526 
C        C      0.275970000000     0.452040000000     0.743620000000     0.00394526 
C        C      0.203540000000     0.375830000000     0.785890000000     0.00394526 
C        C      0.011100000000     0.356300000000     0.780900000000     0.00394526 
C        C      0.896710000000     0.409420000000     0.735160000000     0.00394526 
C        C      0.333350000000     0.314080000000     0.832620000000     0.00394526 
C        C      0.479010000000     0.354410000000     0.851370000000     0.00394526 
C        C      0.611210000000     0.292660000000     0.891520000000     0.00394526 
C        C      0.601550000000     0.189410000000     0.914290000000     0.00394526 
C        C      0.451370000000     0.150480000000     0.897380000000     0.00394526 
C        C      0.319270000000     0.212160000000     0.857100000000     0.00394526 
C        C      0.751940000000     0.122020000000     0.954900000000     0.00394526 
C        C      0.353900000000     0.701500000000     0.554700000000     0.00394526 
C        C      0.196100000000     0.789700000000     0.554900000000     0.00394526 
C        C      0.227400000000     0.885800000000     0.524200000000     0.00394526 
C        C      0.416700000000     0.893600000000     0.493200000000     0.00394526 
C        C      0.574500000000     0.805400000000     0.493000000000     0.00394526 
C        C      0.054700000000     0.980800000000     0.525600000000     0.00394526 
C        C      0.971000000000     0.032520000000     0.141080000000     0.00394526 
C        C      0.852050000000     0.983000000000     0.192700000000     0.00394526 
C        C      0.635160000000     0.003650000000     0.197630000000     0.00394526 
C        C      0.528370000000     0.952040000000     0.243620000000     0.00394526 
C        C      0.634740000000     0.875830000000     0.285890000000     0.00394526 
C        C      0.851700000000     0.856300000000     0.280900000000     0.00394526 
C        C      0.958710000000     0.909420000000     0.235160000000     0.00394526 
C        C      0.519950000000     0.814080000000     0.332620000000     0.00394526 
C        C      0.315210000000     0.854410000000     0.351370000000     0.00394526 
C        C      0.204610000000     0.792660000000     0.391520000000     0.00394526 
C        C      0.294750000000     0.689410000000     0.414290000000     0.00394526 
C        C      0.500770000000     0.650480000000     0.397380000000     0.00394526 
C        C      0.611470000000     0.712160000000     0.357100000000     0.00394526 
C        C      0.171140000000     0.622020000000     0.454900000000     0.00394526 
C        C      0.389900000000     0.201500000000     0.054700000000     0.00394526 
C        C      0.459300000000     0.289700000000     0.054900000000     0.00394526 
C        C      0.362600000000     0.385800000000     0.024200000000     0.00394526 
C        C      0.196500000000     0.393600000000     0.993200000000     0.00394526 
C        C      0.127100000000     0.305400000000     0.993000000000     0.00394526 
C        C      0.438900000000     0.480800000000     0.025600000000     0.00394526 
C        C      0.144600000000     0.467480000000     0.358920000000     0.00394526 
C        C      0.027750000000     0.517000000000     0.307300000000     0.00394526 
C        C      0.836440000000     0.496350000000     0.302370000000     0.00394526 
C        C      0.724030000000     0.547960000000     0.256380000000     0.00394526 
C        C      0.796460000000     0.624170000000     0.214110000000     0.00394526 
C        C      0.988900000000     0.643700000000     0.219100000000     0.00394526 
C        C      0.103290000000     0.590580000000     0.264840000000     0.00394526 
C        C      0.666650000000     0.685920000000     0.167380000000     0.00394526 
C        C      0.520990000000     0.645590000000     0.148630000000     0.00394526 
C        C      0.388790000000     0.707340000000     0.108480000000     0.00394526 
C        C      0.398450000000     0.810590000000     0.085710000000     0.00394526 
C        C      0.548630000000     0.849520000000     0.102620000000     0.00394526 
C        C      0.680730000000     0.787840000000     0.142900000000     0.00394526 
C        C      0.248060000000     0.877980000000     0.045100000000     0.00394526 
C        C      0.646100000000     0.298500000000     0.445300000000     0.00394526 
C        C      0.803900000000     0.210300000000     0.445100000000     0.00394526 
C        C      0.772600000000     0.114200000000     0.475800000000     0.00394526 
C        C      0.583300000000     0.106400000000     0.506800000000     0.00394526 
C        C      0.425500000000     0.194600000000     0.507000000000     0.00394526 
C        C      0.945300000000     0.019200000000     0.474400000000     0.00394526 
N        N      0.776200000000     0.790700000000     0.976300000000    -0.157699   
N        N      0.543200000000     0.709300000000     0.523700000000    -0.157699   
N        N      0.223800000000     0.209300000000     0.023700000000    -0.157699   
N        N      0.456800000000     0.290700000000     0.476300000000    -0.157699   
O        O      0.132260000000     0.929390000000     0.903290000000    -0.291083   
O        O      0.845570000000     0.965530000000     0.857530000000    -0.291083   
O        O      0.740270000000     0.470220000000     0.524040000000    -0.291083   
O        O      0.018780000000     0.338480000000     0.533760000000    -0.291083   
O        O      0.964940000000     0.570610000000     0.596710000000    -0.291083   
O        O      0.668630000000     0.534470000000     0.642470000000    -0.291083   
O        O      0.734530000000     0.029780000000     0.975960000000    -0.291083   
O        O      0.891020000000     0.161520000000     0.966240000000    -0.291083   
O        O      0.867740000000     0.070610000000     0.096710000000    -0.291083   
O        O      0.154430000000     0.034470000000     0.142470000000    -0.291083   
O        O      0.259730000000     0.529780000000     0.475960000000    -0.291083   
O        O      0.981220000000     0.661520000000     0.466240000000    -0.291083   
O        O      0.035060000000     0.429390000000     0.403290000000    -0.291083   
O        O      0.331370000000     0.465530000000     0.357530000000    -0.291083   
O        O      0.265470000000     0.970220000000     0.024040000000    -0.291083   
O        O      0.108980000000     0.838480000000     0.033760000000    -0.291083   


