data_MATTOR_original

_audit_creation_method RASPA-1.0
_audit_creation_date 2022-1-31
_audit_author_name 'Felipe Lopes de Oliveira <felipe.lopes.oliveira@ibm.com>'

_cell_length_a    10.886
_cell_length_b    10.919
_cell_length_c    14.091
_cell_angle_alpha 89.294
_cell_angle_beta  89.081
_cell_angle_gamma 79.691
_cell_volume      1647.59

_symmetry_cell_setting          triclinic
_symmetry_space_group_name_Hall 'P 1'
_symmetry_space_group_name_H-M  'P 1'
_symmetry_Int_Tables_number     1

_symmetry_equiv_pos_as_xyz 'x,y,z'

loop_
_atom_site_label
_atom_site_type_symbol
_atom_site_fract_x
_atom_site_fract_y
_atom_site_fract_z
_atom_site_charge
Zn       Zn     0.723480000000     0.835910000000     0.800740000000     0.4716     
Zn       Zn     0.727720000000     0.839200000000     0.591230000000     0.4716     
Zn       Zn     0.276520000000     0.164090000000     0.199260000000     0.4716     
Zn       Zn     0.272280000000     0.160800000000     0.408770000000     0.4716     
H        H      0.629700000000     0.254800000000     0.572700000000     0.0531532  
H        H      0.628000000000     0.474700000000     0.579900000000     0.0531532  
H        H      0.824100000000     0.416600000000     0.821800000000     0.0531532  
H        H      0.794000000000     0.212900000000     0.829600000000     0.0531532  
H        H      0.330900000000     0.873900000000     0.549700000000     0.0531532  
H        H      0.114400000000     0.876500000000     0.552600000000     0.0531532  
H        H      0.122000000000     0.796500000000     0.832200000000     0.0531532  
H        H      0.336600000000     0.810700000000     0.836800000000     0.0531532  
H        H      0.911700000000     0.808300000000     0.428700000000     0.0531532  
H        H      0.920600000000     0.807000000000     0.266100000000     0.0531532  
H        H      0.542700000000     0.857300000000     0.268700000000     0.0531532  
H        H      0.547700000000     0.862400000000     0.433700000000     0.0531532  
H        H      0.883400000000     0.703400000000     0.119100000000     0.0531532  
H        H      0.858300000000     0.690700000000     0.957300000000     0.0531532  
H        H      0.592400000000     0.978000000000     0.963100000000     0.0531532  
H        H      0.579500000000     0.972200000000     0.125900000000     0.0531532  
H        H      0.370300000000     0.745200000000     0.427300000000     0.0531532  
H        H      0.372000000000     0.525300000000     0.420100000000     0.0531532  
H        H      0.175900000000     0.583400000000     0.178200000000     0.0531532  
H        H      0.206000000000     0.787100000000     0.170400000000     0.0531532  
H        H      0.669100000000     0.126100000000     0.450300000000     0.0531532  
H        H      0.885600000000     0.123500000000     0.447400000000     0.0531532  
H        H      0.878000000000     0.203500000000     0.167800000000     0.0531532  
H        H      0.663400000000     0.189300000000     0.163200000000     0.0531532  
H        H      0.088300000000     0.191700000000     0.571300000000     0.0531532  
H        H      0.079400000000     0.193000000000     0.733900000000     0.0531532  
H        H      0.457300000000     0.142700000000     0.731300000000     0.0531532  
H        H      0.452300000000     0.137600000000     0.566300000000     0.0531532  
H        H      0.116600000000     0.296600000000     0.880900000000     0.0531532  
H        H      0.141700000000     0.309300000000     0.042700000000     0.0531532  
H        H      0.407600000000     0.022000000000     0.036900000000     0.0531532  
H        H      0.420500000000     0.027800000000     0.874100000000     0.0531532  
C        C      0.710000000000     0.076900000000     0.699800000000     0.0337397  
C        C      0.722000000000     0.209600000000     0.700600000000     0.0337397  
C        C      0.667200000000     0.289000000000     0.624100000000     0.0337397  
C        C      0.669700000000     0.419000000000     0.626200000000     0.0337397  
C        C      0.739400000000     0.462500000000     0.703100000000     0.0337397  
C        C      0.781900000000     0.385800000000     0.771300000000     0.0337397  
C        C      0.769200000000     0.261700000000     0.774600000000     0.0337397  
C        C      0.743000000000     0.600300000000     0.702000000000     0.0337397  
C        C      0.487700000000     0.847300000000     0.692900000000     0.0337397  
C        C      0.352800000000     0.842500000000     0.693100000000     0.0337397  
C        C      0.288700000000     0.860900000000     0.607500000000     0.0337397  
C        C      0.160300000000     0.859400000000     0.609410000000     0.0337397  
C        C      0.098400000000     0.833600000000     0.692100000000     0.0337397  
C        C      0.164100000000     0.814400000000     0.775500000000     0.0337397  
C        C      0.292600000000     0.820800000000     0.778700000000     0.0337397  
C        C      0.961800000000     0.829300000000     0.691700000000     0.0337397  
C        C      0.835700000000     0.818600000000     0.394900000000     0.0337397  
C        C      0.842500000000     0.817400000000     0.298700000000     0.0337397  
C        C      0.727700000000     0.832600000000     0.248200000000     0.0337397  
C        C      0.620600000000     0.847700000000     0.299800000000     0.0337397  
C        C      0.624000000000     0.849300000000     0.398400000000     0.0337397  
C        C      0.727000000000     0.833400000000     0.142300000000     0.0337397  
C        C      0.815700000000     0.755400000000     0.088800000000     0.0337397  
C        C      0.805200000000     0.753600000000     0.992100000000     0.0337397  
C        C      0.648100000000     0.915300000000     0.995800000000     0.0337397  
C        C      0.642000000000     0.915600000000     0.093300000000     0.0337397  
C        C      0.290000000000     0.923100000000     0.300200000000     0.0337397  
C        C      0.278000000000     0.790400000000     0.299400000000     0.0337397  
C        C      0.332800000000     0.711000000000     0.375900000000     0.0337397  
C        C      0.330300000000     0.581000000000     0.373800000000     0.0337397  
C        C      0.260600000000     0.537500000000     0.296900000000     0.0337397  
C        C      0.218100000000     0.614200000000     0.228700000000     0.0337397  
C        C      0.230800000000     0.738300000000     0.225400000000     0.0337397  
C        C      0.257000000000     0.399700000000     0.298000000000     0.0337397  
C        C      0.512300000000     0.152700000000     0.307100000000     0.0337397  
C        C      0.647200000000     0.157500000000     0.306900000000     0.0337397  
C        C      0.711300000000     0.139100000000     0.392500000000     0.0337397  
C        C      0.839700000000     0.140600000000     0.390590000000     0.0337397  
C        C      0.901600000000     0.166400000000     0.307900000000     0.0337397  
C        C      0.835900000000     0.185600000000     0.224500000000     0.0337397  
C        C      0.707400000000     0.179200000000     0.221300000000     0.0337397  
C        C      0.038200000000     0.170700000000     0.308300000000     0.0337397  
C        C      0.164300000000     0.181400000000     0.605100000000     0.0337397  
C        C      0.157500000000     0.182600000000     0.701300000000     0.0337397  
C        C      0.272300000000     0.167400000000     0.751800000000     0.0337397  
C        C      0.379400000000     0.152300000000     0.700200000000     0.0337397  
C        C      0.376000000000     0.150700000000     0.601600000000     0.0337397  
C        C      0.273000000000     0.166600000000     0.857700000000     0.0337397  
C        C      0.184300000000     0.244600000000     0.911200000000     0.0337397  
C        C      0.194800000000     0.246400000000     0.007900000000     0.0337397  
C        C      0.351900000000     0.084700000000     0.004200000000     0.0337397  
C        C      0.358000000000     0.084400000000     0.906700000000     0.0337397  
N        N      0.730600000000     0.833000000000     0.444300000000    -0.163975   
N        N      0.723600000000     0.836600000000     0.945270000000    -0.163975   
N        N      0.269400000000     0.167000000000     0.555700000000    -0.163975   
N        N      0.276400000000     0.163400000000     0.054730000000    -0.163975   
O        O      0.706700000000     0.025000000000     0.621120000000    -0.292867   
O        O      0.705100000000     0.022100000000     0.777510000000    -0.292867   
O        O      0.745200000000     0.654000000000     0.624830000000    -0.292867   
O        O      0.742800000000     0.649980000000     0.781350000000    -0.292867   
O        O      0.544700000000     0.852300000000     0.613010000000    -0.292867   
O        O      0.541000000000     0.846800000000     0.770960000000    -0.292867   
O        O      0.913130000000     0.828300000000     0.609880000000    -0.292867   
O        O      0.907700000000     0.824800000000     0.770180000000    -0.292867   
O        O      0.293300000000     0.975000000000     0.378880000000    -0.292867   
O        O      0.294900000000     0.977900000000     0.222490000000    -0.292867   
O        O      0.254800000000     0.346000000000     0.375170000000    -0.292867   
O        O      0.257200000000     0.350020000000     0.218650000000    -0.292867   
O        O      0.455300000000     0.147700000000     0.386990000000    -0.292867   
O        O      0.459000000000     0.153200000000     0.229040000000    -0.292867   
O        O      0.086870000000     0.171700000000     0.390120000000    -0.292867   
O        O      0.092300000000     0.175200000000     0.229820000000    -0.292867   


