data_MATTUX_original

_audit_creation_method RASPA-1.0
_audit_creation_date 2022-1-29
_audit_author_name 'Felipe Lopes de Oliveira <felipe.lopes.oliveira@ibm.com>'

_cell_length_a    12.9758
_cell_length_b    13.1095
_cell_length_c    13.9258
_cell_angle_alpha 85.31
_cell_angle_beta  70.71
_cell_angle_gamma 84.193
_cell_volume      2221.45

_symmetry_cell_setting          triclinic
_symmetry_space_group_name_Hall 'P 1'
_symmetry_space_group_name_H-M  'P 1'
_symmetry_Int_Tables_number     1

_symmetry_equiv_pos_as_xyz 'x,y,z'

loop_
_atom_site_label
_atom_site_type_symbol
_atom_site_fract_x
_atom_site_fract_y
_atom_site_fract_z
_atom_site_charge
Zn       Zn     0.192480000000     0.318910000000     0.663230000000     0.465904   
Zn       Zn     0.128930000000     0.325620000000     0.886450000000     0.465904   
Zn       Zn     0.807520000000     0.681090000000     0.336770000000     0.465904   
Zn       Zn     0.871070000000     0.674380000000     0.113550000000     0.465904   
H        H      0.760000000000     0.347400000000     0.970700000000     0.0544829  
H        H      0.582000000000     0.349800000000     0.972100000000     0.0544829  
H        H      0.872100000000     0.305100000000     0.668300000000     0.0544829  
H        H      0.449000000000     0.329400000000     0.880500000000     0.0544829  
H        H      0.560600000000     0.286400000000     0.578500000000     0.0544829  
H        H      0.737200000000     0.287900000000     0.576500000000     0.0544829  
H        H      0.201000000000     0.988600000000     0.650800000000     0.0544829  
H        H      0.105600000000     0.823400000000     0.976500000000     0.0544829  
H        H      0.117100000000     0.998900000000     0.957200000000     0.0544829  
H        H      0.124700000000     0.655500000000     0.898400000000     0.0544829  
H        H      0.170400000000     0.649700000000     0.601000000000     0.0544829  
H        H      0.184100000000     0.820000000000     0.573400000000     0.0544829  
H        H      0.119600000000     0.174900000000     0.058300000000     0.0544829  
H        H      0.135300000000     0.167200000000     0.217500000000     0.0544829  
H        H      0.099000000000     0.467600000000     0.216300000000     0.0544829  
H        H      0.081600000000     0.466300000000     0.060400000000     0.0544829  
H        H      0.196200000000     0.168000000000     0.342600000000     0.0544829  
H        H      0.209000000000     0.170600000000     0.504100000000     0.0544829  
H        H      0.090900000000     0.448300000000     0.528600000000     0.0544829  
H        H      0.065200000000     0.450200000000     0.373100000000     0.0544829  
H        H      0.240000000000     0.652600000000     0.029300000000     0.0544829  
H        H      0.418000000000     0.650200000000     0.027900000000     0.0544829  
H        H      0.127900000000     0.694900000000     0.331700000000     0.0544829  
H        H      0.551000000000     0.670600000000     0.119500000000     0.0544829  
H        H      0.439400000000     0.713600000000     0.421500000000     0.0544829  
H        H      0.262800000000     0.712100000000     0.423500000000     0.0544829  
H        H      0.799000000000     0.011400000000     0.349200000000     0.0544829  
H        H      0.894400000000     0.176600000000     0.023500000000     0.0544829  
H        H      0.882900000000     0.001100000000     0.042800000000     0.0544829  
H        H      0.875300000000     0.344500000000     0.101600000000     0.0544829  
H        H      0.829600000000     0.350300000000     0.399000000000     0.0544829  
H        H      0.815900000000     0.180000000000     0.426600000000     0.0544829  
H        H      0.880400000000     0.825100000000     0.941700000000     0.0544829  
H        H      0.864700000000     0.832800000000     0.782500000000     0.0544829  
H        H      0.901000000000     0.532400000000     0.783700000000     0.0544829  
H        H      0.918400000000     0.533700000000     0.939600000000     0.0544829  
H        H      0.803800000000     0.832000000000     0.657400000000     0.0544829  
H        H      0.791000000000     0.829400000000     0.495900000000     0.0544829  
H        H      0.909100000000     0.551700000000     0.471400000000     0.0544829  
H        H      0.934800000000     0.549800000000     0.626900000000     0.0544829  
C        C      0.948390000000     0.328320000000     0.815270000000     0.0177915  
C        C      0.832980000000     0.326940000000     0.817090000000     0.0177915  
C        C      0.745390000000     0.339220000000     0.909340000000     0.0177915  
C        C      0.640240000000     0.339280000000     0.910160000000     0.0177915  
C        C      0.615710000000     0.324080000000     0.821330000000     0.0177915  
C        C      0.704350000000     0.310940000000     0.728310000000     0.0177915  
C        C      0.812520000000     0.313270000000     0.729710000000     0.0177915  
C        C      0.508660000000     0.321750000000     0.818990000000     0.0177915  
C        C      0.487390000000     0.308860000000     0.731000000000     0.0177915  
C        C      0.574880000000     0.295860000000     0.639690000000     0.0177915  
C        C      0.679070000000     0.296860000000     0.638790000000     0.0177915  
C        C      0.370240000000     0.311860000000     0.733140000000     0.0177915  
C        C      0.162800000000     0.125640000000     0.790670000000     0.0177915  
C        C      0.159910000000     0.011210000000     0.801090000000     0.0177915  
C        C      0.181660000000     0.954840000000     0.716650000000     0.0177915  
C        C      0.175580000000     0.847510000000     0.726620000000     0.0177915  
C        C      0.147660000000     0.797460000000     0.824170000000     0.0177915  
C        C      0.125250000000     0.856210000000     0.910270000000     0.0177915  
C        C      0.131740000000     0.960210000000     0.898720000000     0.0177915  
C        C      0.142180000000     0.689760000000     0.832840000000     0.0177915  
C        C      0.161330000000     0.634100000000     0.749720000000     0.0177915  
C        C      0.170000000000     0.688250000000     0.656040000000     0.0177915  
C        C      0.177600000000     0.787690000000     0.638480000000     0.0177915  
C        C      0.157460000000     0.519220000000     0.760330000000     0.0177915  
C        C      0.129500000000     0.235950000000     0.085450000000     0.0177915  
C        C      0.138600000000     0.231200000000     0.179750000000     0.0177915  
C        C      0.153260000000     0.322220000000     0.223500000000     0.0177915  
C        C      0.163990000000     0.320670000000     0.325880000000     0.0177915  
C        C      0.117980000000     0.405910000000     0.180940000000     0.0177915  
C        C      0.108620000000     0.404400000000     0.087290000000     0.0177915  
C        C      0.186600000000     0.231330000000     0.374230000000     0.0177915  
C        C      0.195400000000     0.234000000000     0.470460000000     0.0177915  
C        C      0.125800000000     0.393990000000     0.485130000000     0.0177915  
C        C      0.111100000000     0.396800000000     0.391980000000     0.0177915  
C        C      0.051610000000     0.671680000000     0.184730000000     0.0177915  
C        C      0.167020000000     0.673060000000     0.182910000000     0.0177915  
C        C      0.254610000000     0.660780000000     0.090660000000     0.0177915  
C        C      0.359760000000     0.660720000000     0.089840000000     0.0177915  
C        C      0.384290000000     0.675920000000     0.178670000000     0.0177915  
C        C      0.295650000000     0.689060000000     0.271690000000     0.0177915  
C        C      0.187480000000     0.686730000000     0.270290000000     0.0177915  
C        C      0.491340000000     0.678250000000     0.181010000000     0.0177915  
C        C      0.512610000000     0.691140000000     0.269000000000     0.0177915  
C        C      0.425120000000     0.704140000000     0.360310000000     0.0177915  
C        C      0.320930000000     0.703140000000     0.361210000000     0.0177915  
C        C      0.629760000000     0.688140000000     0.266860000000     0.0177915  
C        C      0.837200000000     0.874360000000     0.209330000000     0.0177915  
C        C      0.840090000000     0.988790000000     0.198910000000     0.0177915  
C        C      0.818340000000     0.045160000000     0.283350000000     0.0177915  
C        C      0.824420000000     0.152490000000     0.273380000000     0.0177915  
C        C      0.852340000000     0.202540000000     0.175830000000     0.0177915  
C        C      0.874750000000     0.143790000000     0.089730000000     0.0177915  
C        C      0.868260000000     0.039790000000     0.101280000000     0.0177915  
C        C      0.857820000000     0.310240000000     0.167160000000     0.0177915  
C        C      0.838670000000     0.365900000000     0.250280000000     0.0177915  
C        C      0.830000000000     0.311750000000     0.343960000000     0.0177915  
C        C      0.822400000000     0.212310000000     0.361520000000     0.0177915  
C        C      0.842540000000     0.480780000000     0.239670000000     0.0177915  
C        C      0.870500000000     0.764050000000     0.914550000000     0.0177915  
C        C      0.861400000000     0.768800000000     0.820250000000     0.0177915  
C        C      0.846740000000     0.677780000000     0.776500000000     0.0177915  
C        C      0.836010000000     0.679330000000     0.674120000000     0.0177915  
C        C      0.882020000000     0.594090000000     0.819060000000     0.0177915  
C        C      0.891380000000     0.595600000000     0.912710000000     0.0177915  
C        C      0.813400000000     0.768670000000     0.625770000000     0.0177915  
C        C      0.804600000000     0.766000000000     0.529540000000     0.0177915  
C        C      0.874200000000     0.606010000000     0.514870000000     0.0177915  
C        C      0.888900000000     0.603200000000     0.608020000000     0.0177915  
N        N      0.133990000000     0.323780000000     0.029640000000    -0.158599   
N        N      0.186010000000     0.320080000000     0.519200000000    -0.158599   
N        N      0.866010000000     0.676220000000     0.970360000000    -0.158599   
N        N      0.813990000000     0.679920000000     0.480800000000    -0.158599   
O        O      0.966100000000     0.334850000000     0.898230000000    -0.288647   
O        O      0.022600000000     0.326300000000     0.728780000000    -0.288647   
O        O      0.296850000000     0.314560000000     0.817600000000    -0.288647   
O        O      0.354380000000     0.311950000000     0.648600000000    -0.288647   
O        O      0.191990000000     0.166320000000     0.700960000000    -0.288647   
O        O      0.133470000000     0.172740000000     0.871440000000    -0.288647   
O        O      0.181000000000     0.472800000000     0.678590000000    -0.288647   
O        O      0.131210000000     0.478040000000     0.848950000000    -0.288647   
O        O      0.033900000000     0.665150000000     0.101770000000    -0.288647   
O        O      0.977400000000     0.673700000000     0.271220000000    -0.288647   
O        O      0.703150000000     0.685440000000     0.182400000000    -0.288647   
O        O      0.645620000000     0.688050000000     0.351400000000    -0.288647   
O        O      0.808010000000     0.833680000000     0.299040000000    -0.288647   
O        O      0.866530000000     0.827260000000     0.128560000000    -0.288647   
O        O      0.819000000000     0.527200000000     0.321410000000    -0.288647   
O        O      0.868790000000     0.521960000000     0.151050000000    -0.288647   


