data_MATVEJ_original

_audit_creation_method RASPA-1.0
_audit_creation_date 2022-1-29
_audit_author_name 'Felipe Lopes de Oliveira <felipe.lopes.oliveira@ibm.com>'

_cell_length_a    15.1644
_cell_length_b    15.1729
_cell_length_c    22.273
_cell_angle_alpha 82.987
_cell_angle_beta  78.446
_cell_angle_gamma 72.771
_cell_volume      4784.81

_symmetry_cell_setting          triclinic
_symmetry_space_group_name_Hall 'P 1'
_symmetry_space_group_name_H-M  'P 1'
_symmetry_Int_Tables_number     1

_symmetry_equiv_pos_as_xyz 'x,y,z'

loop_
_atom_site_label
_atom_site_type_symbol
_atom_site_fract_x
_atom_site_fract_y
_atom_site_fract_z
_atom_site_charge
Zn       Zn     0.882420000000     0.717130000000     0.667260000000     0.470797   
Zn       Zn     0.846430000000     0.703250000000     0.801710000000     0.470797   
Zn       Zn     0.117580000000     0.282880000000     0.332740000000     0.470797   
Zn       Zn     0.153570000000     0.296750000000     0.198290000000     0.470797   
H        H      0.725600000000     0.785600000000     0.918300000000     0.0610458  
H        H      0.734600000000     0.781800000000     0.020800000000     0.0610458  
H        H      0.983400000000     0.592200000000     0.989600000000     0.0610458  
H        H      0.965900000000     0.597100000000     0.888700000000     0.0610458  
H        H      0.882800000000     0.480200000000     0.206200000000     0.0610458  
H        H      0.886900000000     0.487200000000     0.309700000000     0.0610458  
H        H      0.896000000000     0.911600000000     0.258400000000     0.0610458  
H        H      0.886000000000     0.905900000000     0.155600000000     0.0610458  
H        H      0.777600000000     0.811500000000     0.466900000000     0.0610458  
H        H      0.773900000000     0.813000000000     0.570300000000     0.0610458  
H        H      0.010100000000     0.619900000000     0.561800000000     0.0610458  
H        H      0.019900000000     0.612900000000     0.457700000000     0.0610458  
H        H      0.116000000000     0.721000000000     0.814900000000     0.0610458  
H        H      0.263800000000     0.730300000000     0.817300000000     0.0610458  
H        H      0.344200000000     0.667300000000     0.641700000000     0.0610458  
H        H      0.193900000000     0.663500000000     0.638800000000     0.0610458  
H        H      0.416400000000     0.667300000000     0.820500000000     0.0610458  
H        H      0.561200000000     0.680600000000     0.824700000000     0.0610458  
H        H      0.592900000000     0.765600000000     0.646000000000     0.0610458  
H        H      0.446600000000     0.753100000000     0.642200000000     0.0610458  
H        H      0.783600000000     0.001900000000     0.823500000000     0.0610458  
H        H      0.790100000000     0.151400000000     0.824100000000     0.0610458  
H        H      0.912700000000     0.144700000000     0.647700000000     0.0610458  
H        H      0.901700000000     0.996600000000     0.646700000000     0.0610458  
H        H      0.872300000000     0.253400000000     0.826000000000     0.0610458  
H        H      0.884900000000     0.401200000000     0.827800000000     0.0610458  
H        H      0.866900000000     0.446100000000     0.648800000000     0.0610458  
H        H      0.854700000000     0.298600000000     0.647500000000     0.0610458  
H        H      0.274400000000     0.214400000000     0.081700000000     0.0610458  
H        H      0.265400000000     0.218200000000     0.979200000000     0.0610458  
H        H      0.016600000000     0.407800000000     0.010400000000     0.0610458  
H        H      0.034100000000     0.402900000000     0.111300000000     0.0610458  
H        H      0.117200000000     0.519800000000     0.793800000000     0.0610458  
H        H      0.113100000000     0.512800000000     0.690300000000     0.0610458  
H        H      0.104000000000     0.088400000000     0.741600000000     0.0610458  
H        H      0.114000000000     0.094100000000     0.844400000000     0.0610458  
H        H      0.222400000000     0.188500000000     0.533100000000     0.0610458  
H        H      0.226100000000     0.187000000000     0.429700000000     0.0610458  
H        H      0.989900000000     0.380100000000     0.438200000000     0.0610458  
H        H      0.980100000000     0.387100000000     0.542300000000     0.0610458  
H        H      0.884000000000     0.279000000000     0.185100000000     0.0610458  
H        H      0.736200000000     0.269700000000     0.182700000000     0.0610458  
H        H      0.655800000000     0.332700000000     0.358300000000     0.0610458  
H        H      0.806100000000     0.336500000000     0.361200000000     0.0610458  
H        H      0.583600000000     0.332700000000     0.179500000000     0.0610458  
H        H      0.438800000000     0.319400000000     0.175300000000     0.0610458  
H        H      0.407100000000     0.234400000000     0.354000000000     0.0610458  
H        H      0.553400000000     0.246900000000     0.357800000000     0.0610458  
H        H      0.216400000000     0.998100000000     0.176500000000     0.0610458  
H        H      0.209900000000     0.848600000000     0.175900000000     0.0610458  
H        H      0.087300000000     0.855300000000     0.352300000000     0.0610458  
H        H      0.098300000000     0.003400000000     0.353300000000     0.0610458  
H        H      0.127700000000     0.746600000000     0.174000000000     0.0610458  
H        H      0.115100000000     0.598800000000     0.172200000000     0.0610458  
H        H      0.133100000000     0.553900000000     0.351200000000     0.0610458  
H        H      0.145300000000     0.701400000000     0.352500000000     0.0610458  
C        C      0.777770000000     0.746300000000     0.932920000000     0.025839   
C        C      0.782950000000     0.745010000000     0.994230000000     0.025839   
C        C      0.861660000000     0.687780000000     0.015120000000     0.025839   
C        C      0.930530000000     0.631870000000     0.975940000000     0.025839   
C        C      0.919580000000     0.635800000000     0.915430000000     0.025839   
C        C      0.877900000000     0.772050000000     0.096080000000     0.025839   
C        C      0.884000000000     0.774560000000     0.161200000000     0.025839   
C        C      0.884150000000     0.694690000000     0.201630000000     0.025839   
C        C      0.883030000000     0.610950000000     0.180630000000     0.025839   
C        C      0.878110000000     0.606280000000     0.115270000000     0.025839   
C        C      0.883820000000     0.534980000000     0.220350000000     0.025839   
C        C      0.886250000000     0.539280000000     0.282770000000     0.025839   
C        C      0.887640000000     0.618390000000     0.303740000000     0.025839   
C        C      0.887970000000     0.698960000000     0.263760000000     0.025839   
C        C      0.891820000000     0.780450000000     0.284460000000     0.025839   
C        C      0.892350000000     0.857710000000     0.244470000000     0.025839   
C        C      0.887230000000     0.853700000000     0.182450000000     0.025839   
C        C      0.896760000000     0.785160000000     0.349510000000     0.025839   
C        C      0.891220000000     0.622040000000     0.370100000000     0.025839   
C        C      0.897160000000     0.709930000000     0.452060000000     0.025839   
C        C      0.825310000000     0.771220000000     0.485540000000     0.025839   
C        C      0.824330000000     0.772630000000     0.547290000000     0.025839   
C        C      0.962990000000     0.659180000000     0.542200000000     0.025839   
C        C      0.968860000000     0.653600000000     0.480000000000     0.025839   
C        C      0.040580000000     0.693640000000     0.724660000000     0.025839   
C        C      0.138330000000     0.693640000000     0.726650000000     0.025839   
C        C      0.161220000000     0.711890000000     0.779490000000     0.025839   
C        C      0.250440000000     0.716900000000     0.781030000000     0.025839   
C        C      0.320480000000     0.702230000000     0.729230000000     0.025839   
C        C      0.298140000000     0.680130000000     0.676440000000     0.025839   
C        C      0.207880000000     0.676930000000     0.674830000000     0.025839   
C        C      0.415160000000     0.709470000000     0.731050000000     0.025839   
C        C      0.451630000000     0.687520000000     0.785340000000     0.025839   
C        C      0.538500000000     0.695200000000     0.787820000000     0.025839   
C        C      0.592980000000     0.724510000000     0.736000000000     0.025839   
C        C      0.557250000000     0.746020000000     0.681270000000     0.025839   
C        C      0.469550000000     0.738550000000     0.678950000000     0.025839   
C        C      0.689860000000     0.728490000000     0.738130000000     0.025839   
C        C      0.843550000000     0.884210000000     0.734980000000     0.025839   
C        C      0.843500000000     0.983070000000     0.735390000000     0.025839   
C        C      0.809660000000     0.030500000000     0.787940000000     0.025839   
C        C      0.814120000000     0.120210000000     0.788320000000     0.025839   
C        C      0.853780000000     0.164550000000     0.736340000000     0.025839   
C        C      0.886460000000     0.116510000000     0.683360000000     0.025839   
C        C      0.880520000000     0.027060000000     0.682830000000     0.025839   
C        C      0.861960000000     0.259710000000     0.736990000000     0.025839   
C        C      0.871140000000     0.292040000000     0.790230000000     0.025839   
C        C      0.878710000000     0.381020000000     0.791510000000     0.025839   
C        C      0.877040000000     0.439500000000     0.738490000000     0.025839   
C        C      0.868000000000     0.407490000000     0.684620000000     0.025839   
C        C      0.860620000000     0.318910000000     0.683850000000     0.025839   
C        C      0.881360000000     0.537400000000     0.739090000000     0.025839   
C        C      0.222230000000     0.253700000000     0.067080000000     0.025839   
C        C      0.217050000000     0.254990000000     0.005770000000     0.025839   
C        C      0.138340000000     0.312220000000     0.984880000000     0.025839   
C        C      0.069470000000     0.368130000000     0.024060000000     0.025839   
C        C      0.080420000000     0.364200000000     0.084570000000     0.025839   
C        C      0.122100000000     0.227950000000     0.903920000000     0.025839   
C        C      0.116000000000     0.225440000000     0.838800000000     0.025839   
C        C      0.115850000000     0.305310000000     0.798370000000     0.025839   
C        C      0.116970000000     0.389050000000     0.819370000000     0.025839   
C        C      0.121890000000     0.393720000000     0.884730000000     0.025839   
C        C      0.116180000000     0.465020000000     0.779650000000     0.025839   
C        C      0.113750000000     0.460720000000     0.717230000000     0.025839   
C        C      0.112360000000     0.381610000000     0.696260000000     0.025839   
C        C      0.112030000000     0.301040000000     0.736240000000     0.025839   
C        C      0.108180000000     0.219550000000     0.715540000000     0.025839   
C        C      0.107650000000     0.142290000000     0.755530000000     0.025839   
C        C      0.112770000000     0.146300000000     0.817550000000     0.025839   
C        C      0.103240000000     0.214840000000     0.650490000000     0.025839   
C        C      0.108780000000     0.377960000000     0.629900000000     0.025839   
C        C      0.102840000000     0.290070000000     0.547940000000     0.025839   
C        C      0.174690000000     0.228780000000     0.514460000000     0.025839   
C        C      0.175670000000     0.227370000000     0.452710000000     0.025839   
C        C      0.037010000000     0.340820000000     0.457800000000     0.025839   
C        C      0.031140000000     0.346400000000     0.520000000000     0.025839   
C        C      0.959420000000     0.306360000000     0.275340000000     0.025839   
C        C      0.861670000000     0.306360000000     0.273350000000     0.025839   
C        C      0.838780000000     0.288110000000     0.220510000000     0.025839   
C        C      0.749560000000     0.283100000000     0.218970000000     0.025839   
C        C      0.679520000000     0.297770000000     0.270770000000     0.025839   
C        C      0.701860000000     0.319870000000     0.323560000000     0.025839   
C        C      0.792120000000     0.323070000000     0.325170000000     0.025839   
C        C      0.584840000000     0.290530000000     0.268950000000     0.025839   
C        C      0.548370000000     0.312480000000     0.214660000000     0.025839   
C        C      0.461500000000     0.304800000000     0.212180000000     0.025839   
C        C      0.407020000000     0.275490000000     0.264000000000     0.025839   
C        C      0.442750000000     0.253980000000     0.318730000000     0.025839   
C        C      0.530450000000     0.261450000000     0.321050000000     0.025839   
C        C      0.310140000000     0.271510000000     0.261870000000     0.025839   
C        C      0.156450000000     0.115790000000     0.265020000000     0.025839   
C        C      0.156500000000     0.016930000000     0.264610000000     0.025839   
C        C      0.190340000000     0.969500000000     0.212060000000     0.025839   
C        C      0.185880000000     0.879790000000     0.211680000000     0.025839   
C        C      0.146220000000     0.835450000000     0.263660000000     0.025839   
C        C      0.113540000000     0.883490000000     0.316640000000     0.025839   
C        C      0.119480000000     0.972940000000     0.317170000000     0.025839   
C        C      0.138040000000     0.740290000000     0.263010000000     0.025839   
C        C      0.128860000000     0.707960000000     0.209770000000     0.025839   
C        C      0.121290000000     0.618980000000     0.208490000000     0.025839   
C        C      0.122960000000     0.560500000000     0.261510000000     0.025839   
C        C      0.132000000000     0.592510000000     0.315380000000     0.025839   
C        C      0.139380000000     0.681090000000     0.316150000000     0.025839   
C        C      0.118640000000     0.462600000000     0.260910000000     0.025839   
N        N      0.845890000000     0.692430000000     0.893620000000    -0.192239   
N        N      0.870230000000     0.689060000000     0.078480000000    -0.192239   
N        N      0.897670000000     0.704340000000     0.387800000000    -0.192239   
N        N      0.892320000000     0.718750000000     0.575300000000    -0.192239   
N        N      0.154110000000     0.307570000000     0.106380000000    -0.192239   
N        N      0.129770000000     0.310940000000     0.921520000000    -0.192239   
N        N      0.102330000000     0.295660000000     0.612200000000    -0.192239   
N        N      0.107680000000     0.281250000000     0.424700000000    -0.192239   
O        O      0.879330000000     0.836660000000     0.059210000000    -0.268796   
O        O      0.878130000000     0.536310000000     0.094570000000    -0.268796   
O        O      0.901970000000     0.853960000000     0.370550000000    -0.268796   
O        O      0.889020000000     0.556860000000     0.407180000000    -0.268796   
O        O      0.883400000000     0.583490000000     0.688420000000    -0.268796   
O        O      0.881730000000     0.565390000000     0.789670000000    -0.268796   
O        O      0.817210000000     0.844150000000     0.785750000000    -0.268796   
O        O      0.872010000000     0.847550000000     0.684450000000    -0.268796   
O        O      0.020920000000     0.686270000000     0.673740000000    -0.268796   
O        O      0.984590000000     0.701380000000     0.775000000000    -0.268796   
O        O      0.738470000000     0.748250000000     0.688430000000    -0.268796   
O        O      0.716190000000     0.710040000000     0.789480000000    -0.268796   
O        O      0.120670000000     0.163340000000     0.940790000000    -0.268796   
O        O      0.121870000000     0.463690000000     0.905430000000    -0.268796   
O        O      0.098030000000     0.146040000000     0.629450000000    -0.268796   
O        O      0.110980000000     0.443140000000     0.592820000000    -0.268796   
O        O      0.116600000000     0.416510000000     0.311580000000    -0.268796   
O        O      0.118270000000     0.434610000000     0.210330000000    -0.268796   
O        O      0.182790000000     0.155850000000     0.214250000000    -0.268796   
O        O      0.127990000000     0.152450000000     0.315550000000    -0.268796   
O        O      0.979080000000     0.313730000000     0.326260000000    -0.268796   
O        O      0.015410000000     0.298620000000     0.225000000000    -0.268796   
O        O      0.261530000000     0.251750000000     0.311570000000    -0.268796   
O        O      0.283810000000     0.289960000000     0.210520000000    -0.268796   


