data_MEJQID_original

_audit_creation_method RASPA-1.0
_audit_creation_date 2022-1-31
_audit_author_name 'Felipe Lopes de Oliveira <felipe.lopes.oliveira@ibm.com>'

_cell_length_a    8.9082
_cell_length_b    10.5533
_cell_length_c    18.6627
_cell_angle_alpha 90
_cell_angle_beta  90
_cell_angle_gamma 90
_cell_volume      1754.5

_symmetry_cell_setting          triclinic
_symmetry_space_group_name_Hall 'P 1'
_symmetry_space_group_name_H-M  'P 1'
_symmetry_Int_Tables_number     1

_symmetry_equiv_pos_as_xyz 'x,y,z'

loop_
_atom_site_label
_atom_site_type_symbol
_atom_site_fract_x
_atom_site_fract_y
_atom_site_fract_z
_atom_site_charge
Zn       Zn     0.870500000000     0.984710000000     0.399070000000     0.386829   
Zn       Zn     0.370500000000     0.015290000000     0.600930000000     0.386829   
Zn       Zn     0.870500000000     0.515290000000     0.899070000000     0.386829   
Zn       Zn     0.370500000000     0.484710000000     0.100930000000     0.386829   
H        H      0.178800000000     0.037600000000     0.470000000000     0.072494   
H        H      0.760800000000     0.641300000000     0.600400000000     0.072494   
H        H      0.158200000000     0.698100000000     0.727700000000     0.072494   
H        H      0.249900000000     0.797800000000     0.691900000000     0.072494   
H        H      0.027100000000     0.323900000000     0.287000000000     0.072494   
H        H      0.149800000000     0.468300000000     0.213200000000     0.072494   
H        H      0.407600000000     0.207200000000     0.136200000000     0.072494   
H        H      0.295600000000     0.055000000000     0.208300000000     0.072494   
H        H      0.678800000000     0.962400000000     0.530000000000     0.072494   
H        H      0.260800000000     0.358700000000     0.399600000000     0.072494   
H        H      0.658200000000     0.301900000000     0.272300000000     0.072494   
H        H      0.749900000000     0.202200000000     0.308100000000     0.072494   
H        H      0.527100000000     0.676100000000     0.713000000000     0.072494   
H        H      0.649800000000     0.531700000000     0.786800000000     0.072494   
H        H      0.907600000000     0.792800000000     0.863800000000     0.072494   
H        H      0.795600000000     0.945000000000     0.791700000000     0.072494   
H        H      0.178800000000     0.462400000000     0.970000000000     0.072494   
H        H      0.760800000000     0.858700000000     0.100400000000     0.072494   
H        H      0.158200000000     0.801900000000     0.227700000000     0.072494   
H        H      0.249900000000     0.702200000000     0.191900000000     0.072494   
H        H      0.027100000000     0.176100000000     0.787000000000     0.072494   
H        H      0.149800000000     0.031700000000     0.713200000000     0.072494   
H        H      0.407600000000     0.292800000000     0.636200000000     0.072494   
H        H      0.295600000000     0.445000000000     0.708300000000     0.072494   
H        H      0.678800000000     0.537600000000     0.030000000000     0.072494   
H        H      0.260800000000     0.141300000000     0.899600000000     0.072494   
H        H      0.658200000000     0.198100000000     0.772300000000     0.072494   
H        H      0.749900000000     0.297800000000     0.808100000000     0.072494   
H        H      0.527100000000     0.823900000000     0.213000000000     0.072494   
H        H      0.649800000000     0.968300000000     0.286800000000     0.072494   
H        H      0.907600000000     0.707200000000     0.363800000000     0.072494   
H        H      0.795600000000     0.555000000000     0.291700000000     0.072494   
C        C      0.130300000000     0.976500000000     0.497400000000     0.0680416  
C        C      0.843600000000     0.694100000000     0.594800000000     0.0680416  
C        C      0.065200000000     0.760900000000     0.640200000000     0.0680416  
C        C      0.079600000000     0.843100000000     0.581200000000     0.0680416  
C        C      0.966800000000     0.840200000000     0.532300000000     0.0680416  
C        C      0.077600000000     0.075300000000     0.304300000000     0.0680416  
C        C      0.104800000000     0.298000000000     0.257000000000     0.0680416  
C        C      0.154300000000     0.172500000000     0.256000000000     0.0680416  
C        C      0.177200000000     0.383300000000     0.211100000000     0.0680416  
C        C      0.328700000000     0.230200000000     0.166200000000     0.0680416  
C        C      0.263400000000     0.138800000000     0.210400000000     0.0680416  
C        C      0.630300000000     0.023500000000     0.502600000000     0.0680416  
C        C      0.343600000000     0.305900000000     0.405200000000     0.0680416  
C        C      0.565200000000     0.239100000000     0.359800000000     0.0680416  
C        C      0.579600000000     0.156900000000     0.418800000000     0.0680416  
C        C      0.466800000000     0.159800000000     0.467700000000     0.0680416  
C        C      0.577600000000     0.924700000000     0.695700000000     0.0680416  
C        C      0.604800000000     0.702000000000     0.743000000000     0.0680416  
C        C      0.654300000000     0.827500000000     0.744000000000     0.0680416  
C        C      0.677200000000     0.616700000000     0.788900000000     0.0680416  
C        C      0.828700000000     0.769800000000     0.833800000000     0.0680416  
C        C      0.763400000000     0.861200000000     0.789600000000     0.0680416  
C        C      0.130300000000     0.523500000000     0.997400000000     0.0680416  
C        C      0.843600000000     0.805900000000     0.094800000000     0.0680416  
C        C      0.065200000000     0.739100000000     0.140200000000     0.0680416  
C        C      0.079600000000     0.656900000000     0.081200000000     0.0680416  
C        C      0.966800000000     0.659800000000     0.032300000000     0.0680416  
C        C      0.077600000000     0.424700000000     0.804300000000     0.0680416  
C        C      0.104800000000     0.202000000000     0.757000000000     0.0680416  
C        C      0.154300000000     0.327500000000     0.756000000000     0.0680416  
C        C      0.177200000000     0.116700000000     0.711100000000     0.0680416  
C        C      0.328700000000     0.269800000000     0.666200000000     0.0680416  
C        C      0.263400000000     0.361200000000     0.710400000000     0.0680416  
C        C      0.630300000000     0.476500000000     0.002600000000     0.0680416  
C        C      0.343600000000     0.194100000000     0.905200000000     0.0680416  
C        C      0.565200000000     0.260900000000     0.859800000000     0.0680416  
C        C      0.579600000000     0.343100000000     0.918800000000     0.0680416  
C        C      0.466800000000     0.340200000000     0.967700000000     0.0680416  
C        C      0.577600000000     0.575300000000     0.195700000000     0.0680416  
C        C      0.604800000000     0.798000000000     0.243000000000     0.0680416  
C        C      0.654300000000     0.672500000000     0.244000000000     0.0680416  
C        C      0.677200000000     0.883300000000     0.288900000000     0.0680416  
C        C      0.828700000000     0.730200000000     0.333800000000     0.0680416  
C        C      0.763400000000     0.638800000000     0.289600000000     0.0680416  
N        N      0.996100000000     0.925100000000     0.478200000000    -0.191404   
N        N      0.843300000000     0.768800000000     0.536100000000    -0.191404   
N        N      0.187300000000     0.931600000000     0.559300000000    -0.191404   
N        N      0.944100000000     0.687200000000     0.643800000000    -0.191404   
N        N      0.170900000000     0.751000000000     0.693200000000    -0.191404   
N        N      0.280000000000     0.350300000000     0.165900000000    -0.191404   
N        N      0.496100000000     0.074900000000     0.521800000000    -0.191404   
N        N      0.343300000000     0.231200000000     0.463900000000    -0.191404   
N        N      0.687300000000     0.068400000000     0.440700000000    -0.191404   
N        N      0.444100000000     0.312800000000     0.356200000000    -0.191404   
N        N      0.670900000000     0.249000000000     0.306800000000    -0.191404   
N        N      0.780000000000     0.649700000000     0.834100000000    -0.191404   
N        N      0.996100000000     0.574900000000     0.978200000000    -0.191404   
N        N      0.843300000000     0.731200000000     0.036100000000    -0.191404   
N        N      0.187300000000     0.568400000000     0.059300000000    -0.191404   
N        N      0.944100000000     0.812800000000     0.143800000000    -0.191404   
N        N      0.170900000000     0.749000000000     0.193200000000    -0.191404   
N        N      0.280000000000     0.149700000000     0.665900000000    -0.191404   
N        N      0.496100000000     0.425100000000     0.021800000000    -0.191404   
N        N      0.343300000000     0.268800000000     0.963900000000    -0.191404   
N        N      0.687300000000     0.431600000000     0.940700000000    -0.191404   
N        N      0.444100000000     0.187200000000     0.856200000000    -0.191404   
N        N      0.670900000000     0.251000000000     0.806800000000    -0.191404   
N        N      0.780000000000     0.850300000000     0.334100000000    -0.191404   
O        O      0.963200000000     0.115200000000     0.338700000000    -0.283409   
O        O      0.127100000000     0.966800000000     0.306000000000    -0.283409   
O        O      0.463200000000     0.884800000000     0.661300000000    -0.283409   
O        O      0.627100000000     0.033200000000     0.694000000000    -0.283409   
O        O      0.963200000000     0.384800000000     0.838700000000    -0.283409   
O        O      0.127100000000     0.533200000000     0.806000000000    -0.283409   
O        O      0.463200000000     0.615200000000     0.161300000000    -0.283409   
O        O      0.627100000000     0.466800000000     0.194000000000    -0.283409   


