data_MIBQAR18_original

_audit_creation_method RASPA-1.0
_audit_creation_date 2022-1-31
_audit_author_name 'Felipe Lopes de Oliveira <felipe.lopes.oliveira@ibm.com>'

_cell_length_a    18.2205
_cell_length_b    18.2205
_cell_length_c    18.2205
_cell_angle_alpha 60
_cell_angle_beta  60
_cell_angle_gamma 60
_cell_volume      4277.26

_symmetry_cell_setting          triclinic
_symmetry_space_group_name_Hall 'P 1'
_symmetry_space_group_name_H-M  'P 1'
_symmetry_Int_Tables_number     1

_symmetry_equiv_pos_as_xyz 'x,y,z'

loop_
_atom_site_label
_atom_site_type_symbol
_atom_site_fract_x
_atom_site_fract_y
_atom_site_fract_z
_atom_site_charge
Zn       Zn     0.293610000000     0.293610000000     0.119170000000     0.484555   
Zn       Zn     0.293610000000     0.293610000000     0.293610000000     0.484555   
Zn       Zn     0.119170000000     0.293610000000     0.293610000000     0.484555   
Zn       Zn     0.293610000000     0.119170000000     0.293610000000     0.484555   
Zn       Zn     0.706390000000     0.706390000000     0.880830000000     0.484555   
Zn       Zn     0.706390000000     0.706390000000     0.706390000000     0.484555   
Zn       Zn     0.706390000000     0.880830000000     0.706390000000     0.484555   
Zn       Zn     0.880830000000     0.706390000000     0.706390000000     0.484555   
H        H      0.455800000000     0.455800000000     0.937000000000     0.0591322  
H        H      0.455800000000     0.455800000000     0.151400000000     0.0591322  
H        H      0.937000000000     0.151400000000     0.455800000000     0.0591322  
H        H      0.151400000000     0.937000000000     0.455800000000     0.0591322  
H        H      0.455800000000     0.937000000000     0.151400000000     0.0591322  
H        H      0.455800000000     0.151400000000     0.937000000000     0.0591322  
H        H      0.937000000000     0.455800000000     0.455800000000     0.0591322  
H        H      0.151400000000     0.455800000000     0.455800000000     0.0591322  
H        H      0.455800000000     0.151400000000     0.455800000000     0.0591322  
H        H      0.455800000000     0.937000000000     0.455800000000     0.0591322  
H        H      0.937000000000     0.455800000000     0.151400000000     0.0591322  
H        H      0.151400000000     0.455800000000     0.937000000000     0.0591322  
H        H      0.544200000000     0.544200000000     0.063000000000     0.0591322  
H        H      0.544200000000     0.544200000000     0.848600000000     0.0591322  
H        H      0.848600000000     0.063000000000     0.544200000000     0.0591322  
H        H      0.063000000000     0.848600000000     0.544200000000     0.0591322  
H        H      0.063000000000     0.544200000000     0.848600000000     0.0591322  
H        H      0.848600000000     0.544200000000     0.063000000000     0.0591322  
H        H      0.544200000000     0.063000000000     0.544200000000     0.0591322  
H        H      0.544200000000     0.848600000000     0.544200000000     0.0591322  
H        H      0.848600000000     0.544200000000     0.544200000000     0.0591322  
H        H      0.063000000000     0.544200000000     0.544200000000     0.0591322  
H        H      0.544200000000     0.063000000000     0.848600000000     0.0591322  
H        H      0.544200000000     0.848600000000     0.063000000000     0.0591322  
C        C      0.473500000000     0.473500000000     0.963900000000     0.0631921  
C        C      0.473500000000     0.473500000000     0.089100000000     0.0631921  
C        C      0.963900000000     0.089100000000     0.473500000000     0.0631921  
C        C      0.089100000000     0.963900000000     0.473500000000     0.0631921  
C        C      0.473500000000     0.963900000000     0.089100000000     0.0631921  
C        C      0.473500000000     0.089100000000     0.963900000000     0.0631921  
C        C      0.963900000000     0.473500000000     0.473500000000     0.0631921  
C        C      0.089100000000     0.473500000000     0.473500000000     0.0631921  
C        C      0.473500000000     0.089100000000     0.473500000000     0.0631921  
C        C      0.473500000000     0.963900000000     0.473500000000     0.0631921  
C        C      0.963900000000     0.473500000000     0.089100000000     0.0631921  
C        C      0.089100000000     0.473500000000     0.963900000000     0.0631921  
C        C      0.526500000000     0.526500000000     0.036100000000     0.0631921  
C        C      0.526500000000     0.526500000000     0.910900000000     0.0631921  
C        C      0.910900000000     0.036100000000     0.526500000000     0.0631921  
C        C      0.036100000000     0.910900000000     0.526500000000     0.0631921  
C        C      0.036100000000     0.526500000000     0.910900000000     0.0631921  
C        C      0.910900000000     0.526500000000     0.036100000000     0.0631921  
C        C      0.526500000000     0.036100000000     0.526500000000     0.0631921  
C        C      0.526500000000     0.910900000000     0.526500000000     0.0631921  
C        C      0.910900000000     0.526500000000     0.526500000000     0.0631921  
C        C      0.036100000000     0.526500000000     0.526500000000     0.0631921  
C        C      0.526500000000     0.036100000000     0.910900000000     0.0631921  
C        C      0.526500000000     0.910900000000     0.036100000000     0.0631921  
C        C      0.388500000000     0.388500000000     0.111500000000     0.0631921  
C        C      0.446600000000     0.446600000000     0.053400000000     0.0631921  
C        C      0.111500000000     0.111500000000     0.388500000000     0.0631921  
C        C      0.053400000000     0.053400000000     0.446600000000     0.0631921  
C        C      0.388500000000     0.111500000000     0.111500000000     0.0631921  
C        C      0.446600000000     0.053400000000     0.053400000000     0.0631921  
C        C      0.111500000000     0.388500000000     0.388500000000     0.0631921  
C        C      0.053400000000     0.446600000000     0.446600000000     0.0631921  
C        C      0.388500000000     0.111500000000     0.388500000000     0.0631921  
C        C      0.446600000000     0.053400000000     0.446600000000     0.0631921  
C        C      0.111500000000     0.388500000000     0.111500000000     0.0631921  
C        C      0.053400000000     0.446600000000     0.053400000000     0.0631921  
C        C      0.611500000000     0.611500000000     0.888500000000     0.0631921  
C        C      0.553400000000     0.553400000000     0.946600000000     0.0631921  
C        C      0.888500000000     0.888500000000     0.611500000000     0.0631921  
C        C      0.946600000000     0.946600000000     0.553400000000     0.0631921  
C        C      0.888500000000     0.611500000000     0.888500000000     0.0631921  
C        C      0.946600000000     0.553400000000     0.946600000000     0.0631921  
C        C      0.611500000000     0.888500000000     0.611500000000     0.0631921  
C        C      0.553400000000     0.946600000000     0.553400000000     0.0631921  
C        C      0.888500000000     0.611500000000     0.611500000000     0.0631921  
C        C      0.946600000000     0.553400000000     0.553400000000     0.0631921  
C        C      0.611500000000     0.888500000000     0.888500000000     0.0631921  
C        C      0.553400000000     0.946600000000     0.946600000000     0.0631921  
O        O      0.250000000000     0.250000000000     0.250000000000    -0.32034    
O        O      0.750000000000     0.750000000000     0.750000000000    -0.32034    
O        O      0.366090000000     0.366090000000     0.073510000000    -0.32034    
O        O      0.366090000000     0.366090000000     0.194310000000    -0.32034    
O        O      0.073510000000     0.194310000000     0.366090000000    -0.32034    
O        O      0.194310000000     0.073510000000     0.366090000000    -0.32034    
O        O      0.366090000000     0.073510000000     0.194310000000    -0.32034    
O        O      0.366090000000     0.194310000000     0.073510000000    -0.32034    
O        O      0.073510000000     0.366090000000     0.366090000000    -0.32034    
O        O      0.194310000000     0.366090000000     0.366090000000    -0.32034    
O        O      0.366090000000     0.194310000000     0.366090000000    -0.32034    
O        O      0.366090000000     0.073510000000     0.366090000000    -0.32034    
O        O      0.073510000000     0.366090000000     0.194310000000    -0.32034    
O        O      0.194310000000     0.366090000000     0.073510000000    -0.32034    
O        O      0.633910000000     0.633910000000     0.926490000000    -0.32034    
O        O      0.633910000000     0.633910000000     0.805690000000    -0.32034    
O        O      0.805690000000     0.926490000000     0.633910000000    -0.32034    
O        O      0.926490000000     0.805690000000     0.633910000000    -0.32034    
O        O      0.926490000000     0.633910000000     0.805690000000    -0.32034    
O        O      0.805690000000     0.633910000000     0.926490000000    -0.32034    
O        O      0.633910000000     0.926490000000     0.633910000000    -0.32034    
O        O      0.633910000000     0.805690000000     0.633910000000    -0.32034    
O        O      0.805690000000     0.633910000000     0.633910000000    -0.32034    
O        O      0.926490000000     0.633910000000     0.633910000000    -0.32034    
O        O      0.633910000000     0.926490000000     0.805690000000    -0.32034    
O        O      0.633910000000     0.805690000000     0.926490000000    -0.32034    


