data_MIDRAT_original

_audit_creation_method RASPA-1.0
_audit_creation_date 2022-1-31
_audit_author_name 'Felipe Lopes de Oliveira <felipe.lopes.oliveira@ibm.com>'

_cell_length_a    11.5312
_cell_length_b    14.8219
_cell_length_c    14.8219
_cell_angle_alpha 90
_cell_angle_beta  90
_cell_angle_gamma 90
_cell_volume      2533.27

_symmetry_cell_setting          triclinic
_symmetry_space_group_name_Hall 'P 1'
_symmetry_space_group_name_H-M  'P 1'
_symmetry_Int_Tables_number     1

_symmetry_equiv_pos_as_xyz 'x,y,z'

loop_
_atom_site_label
_atom_site_type_symbol
_atom_site_fract_x
_atom_site_fract_y
_atom_site_fract_z
_atom_site_charge
Zn       Zn     0.750000000000     0.887470000000     0.112530000000     0.472038   
Zn       Zn     0.250000000000     0.112530000000     0.887470000000     0.472038   
Zn       Zn     0.500000000000     0.387470000000     0.387470000000     0.472038   
Zn       Zn     0.000000000000     0.612530000000     0.612530000000     0.472038   
H        H      0.438600000000     0.366500000000     0.089400000000     0.157436   
H        H      0.558400000000     0.407700000000     0.053700000000     0.157436   
H        H      0.546300000000     0.301300000000     0.069800000000     0.157436   
H        H      0.888500000000     0.311300000000     0.291000000000     0.157436   
H        H      0.902100000000     0.416500000000     0.269100000000     0.157436   
H        H      0.881800000000     0.383800000000     0.370800000000     0.157436   
H        H      0.652300000000     0.200000000000     0.218400000000     0.157436   
H        H      0.653800000000     0.044700000000     0.212400000000     0.157436   
H        H      0.891800000000     0.045100000000     0.022700000000     0.157436   
H        H      0.899600000000     0.200800000000     0.023400000000     0.157436   
H        H      0.938600000000     0.633500000000     0.910600000000     0.157436   
H        H      0.058400000000     0.592300000000     0.946300000000     0.157436   
H        H      0.046300000000     0.698700000000     0.930200000000     0.157436   
H        H      0.388500000000     0.688700000000     0.709000000000     0.157436   
H        H      0.402100000000     0.583500000000     0.730900000000     0.157436   
H        H      0.381800000000     0.616200000000     0.629200000000     0.157436   
H        H      0.152300000000     0.800000000000     0.781600000000     0.157436   
H        H      0.153800000000     0.955300000000     0.787600000000     0.157436   
H        H      0.391800000000     0.954900000000     0.977300000000     0.157436   
H        H      0.399600000000     0.799200000000     0.976600000000     0.157436   
H        H      0.188600000000     0.410600000000     0.866500000000     0.157436   
H        H      0.308400000000     0.446300000000     0.907700000000     0.157436   
H        H      0.296300000000     0.430200000000     0.801300000000     0.157436   
H        H      0.638500000000     0.209000000000     0.811300000000     0.157436   
H        H      0.652100000000     0.230900000000     0.916500000000     0.157436   
H        H      0.631800000000     0.129200000000     0.883800000000     0.157436   
H        H      0.402300000000     0.281600000000     0.700000000000     0.157436   
H        H      0.403800000000     0.287600000000     0.544700000000     0.157436   
H        H      0.641800000000     0.477300000000     0.545100000000     0.157436   
H        H      0.649600000000     0.476600000000     0.700800000000     0.157436   
H        H      0.688600000000     0.589400000000     0.133500000000     0.157436   
H        H      0.808400000000     0.553700000000     0.092300000000     0.157436   
H        H      0.796300000000     0.569800000000     0.198700000000     0.157436   
H        H      0.138500000000     0.791000000000     0.188700000000     0.157436   
H        H      0.152100000000     0.769100000000     0.083500000000     0.157436   
H        H      0.131800000000     0.870800000000     0.116200000000     0.157436   
H        H      0.902300000000     0.718400000000     0.300000000000     0.157436   
H        H      0.903800000000     0.712400000000     0.455300000000     0.157436   
H        H      0.141800000000     0.522700000000     0.454900000000     0.157436   
H        H      0.149600000000     0.523400000000     0.299200000000     0.157436   
H        H      0.311400000000     0.133500000000     0.589400000000     0.157436   
H        H      0.191600000000     0.092300000000     0.553700000000     0.157436   
H        H      0.203700000000     0.198700000000     0.569800000000     0.157436   
H        H      0.861500000000     0.188700000000     0.791000000000     0.157436   
H        H      0.847900000000     0.083500000000     0.769100000000     0.157436   
H        H      0.868200000000     0.116200000000     0.870800000000     0.157436   
H        H      0.097700000000     0.300000000000     0.718400000000     0.157436   
H        H      0.096200000000     0.455300000000     0.712400000000     0.157436   
H        H      0.858200000000     0.454900000000     0.522700000000     0.157436   
H        H      0.850400000000     0.299200000000     0.523400000000     0.157436   
H        H      0.811400000000     0.866500000000     0.410600000000     0.157436   
H        H      0.691600000000     0.907700000000     0.446300000000     0.157436   
H        H      0.703700000000     0.801300000000     0.430200000000     0.157436   
H        H      0.361500000000     0.811300000000     0.209000000000     0.157436   
H        H      0.347900000000     0.916500000000     0.230900000000     0.157436   
H        H      0.368200000000     0.883800000000     0.129200000000     0.157436   
H        H      0.597700000000     0.700000000000     0.281600000000     0.157436   
H        H      0.596200000000     0.544700000000     0.287600000000     0.157436   
H        H      0.358200000000     0.545100000000     0.477300000000     0.157436   
H        H      0.350400000000     0.700800000000     0.476600000000     0.157436   
H        H      0.561400000000     0.089400000000     0.366500000000     0.157436   
H        H      0.441600000000     0.053700000000     0.407700000000     0.157436   
H        H      0.453700000000     0.069800000000     0.301300000000     0.157436   
H        H      0.111500000000     0.291000000000     0.311300000000     0.157436   
H        H      0.097900000000     0.269100000000     0.416500000000     0.157436   
H        H      0.118200000000     0.370800000000     0.383800000000     0.157436   
H        H      0.347700000000     0.218400000000     0.200000000000     0.157436   
H        H      0.346200000000     0.212400000000     0.044700000000     0.157436   
H        H      0.108200000000     0.022700000000     0.045100000000     0.157436   
H        H      0.100400000000     0.023400000000     0.200800000000     0.157436   
H        H      0.061400000000     0.910600000000     0.633500000000     0.157436   
H        H      0.941600000000     0.946300000000     0.592300000000     0.157436   
H        H      0.953700000000     0.930200000000     0.698700000000     0.157436   
H        H      0.611500000000     0.709000000000     0.688700000000     0.157436   
H        H      0.597900000000     0.730900000000     0.583500000000     0.157436   
H        H      0.618200000000     0.629200000000     0.616200000000     0.157436   
H        H      0.847700000000     0.781600000000     0.800000000000     0.157436   
H        H      0.846200000000     0.787600000000     0.955300000000     0.157436   
H        H      0.608200000000     0.977300000000     0.954900000000     0.157436   
H        H      0.600400000000     0.976600000000     0.799200000000     0.157436   
C        C      0.523200000000     0.361100000000     0.091770000000    -0.0984869  
C        C      0.563800000000     0.372730000000     0.187850000000    -0.0984869  
C        C      0.685300000000     0.366230000000     0.207170000000    -0.0984869  
C        C      0.734200000000     0.379480000000     0.294270000000    -0.0984869  
C        C      0.862800000000     0.372100000000     0.307400000000    -0.0984869  
C        C      0.776600000000     0.218380000000     0.121050000000    -0.0984869  
C        C      0.702300000000     0.169660000000     0.177520000000    -0.0984869  
C        C      0.703100000000     0.077220000000     0.172700000000    -0.0984869  
C        C      0.842000000000     0.077320000000     0.062280000000    -0.0984869  
C        C      0.847700000000     0.170080000000     0.062630000000    -0.0984869  
C        C      0.023200000000     0.638900000000     0.908230000000    -0.0984869  
C        C      0.063800000000     0.627270000000     0.812150000000    -0.0984869  
C        C      0.185300000000     0.633770000000     0.792830000000    -0.0984869  
C        C      0.234200000000     0.620520000000     0.705730000000    -0.0984869  
C        C      0.362800000000     0.627900000000     0.692600000000    -0.0984869  
C        C      0.276600000000     0.781620000000     0.878950000000    -0.0984869  
C        C      0.202300000000     0.830340000000     0.822480000000    -0.0984869  
C        C      0.203100000000     0.922780000000     0.827300000000    -0.0984869  
C        C      0.342000000000     0.922680000000     0.937720000000    -0.0984869  
C        C      0.347700000000     0.829920000000     0.937370000000    -0.0984869  
C        C      0.273200000000     0.408230000000     0.861100000000    -0.0984869  
C        C      0.313800000000     0.312150000000     0.872730000000    -0.0984869  
C        C      0.435300000000     0.292830000000     0.866230000000    -0.0984869  
C        C      0.484200000000     0.205730000000     0.879480000000    -0.0984869  
C        C      0.612800000000     0.192600000000     0.872100000000    -0.0984869  
C        C      0.526600000000     0.378950000000     0.718380000000    -0.0984869  
C        C      0.452300000000     0.322480000000     0.669660000000    -0.0984869  
C        C      0.453100000000     0.327300000000     0.577220000000    -0.0984869  
C        C      0.592000000000     0.437720000000     0.577320000000    -0.0984869  
C        C      0.597700000000     0.437370000000     0.670080000000    -0.0984869  
C        C      0.773200000000     0.591770000000     0.138900000000    -0.0984869  
C        C      0.813800000000     0.687850000000     0.127270000000    -0.0984869  
C        C      0.935300000000     0.707170000000     0.133770000000    -0.0984869  
C        C      0.984200000000     0.794270000000     0.120520000000    -0.0984869  
C        C      0.112800000000     0.807400000000     0.127900000000    -0.0984869  
C        C      0.026600000000     0.621050000000     0.281620000000    -0.0984869  
C        C      0.952300000000     0.677520000000     0.330340000000    -0.0984869  
C        C      0.953100000000     0.672700000000     0.422780000000    -0.0984869  
C        C      0.092000000000     0.562280000000     0.422680000000    -0.0984869  
C        C      0.097700000000     0.562630000000     0.329920000000    -0.0984869  
C        C      0.226800000000     0.138900000000     0.591770000000    -0.0984869  
C        C      0.186200000000     0.127270000000     0.687850000000    -0.0984869  
C        C      0.064700000000     0.133770000000     0.707170000000    -0.0984869  
C        C      0.015800000000     0.120520000000     0.794270000000    -0.0984869  
C        C      0.887200000000     0.127900000000     0.807400000000    -0.0984869  
C        C      0.973400000000     0.281620000000     0.621050000000    -0.0984869  
C        C      0.047700000000     0.330340000000     0.677520000000    -0.0984869  
C        C      0.046900000000     0.422780000000     0.672700000000    -0.0984869  
C        C      0.908000000000     0.422680000000     0.562280000000    -0.0984869  
C        C      0.902300000000     0.329920000000     0.562630000000    -0.0984869  
C        C      0.726800000000     0.861100000000     0.408230000000    -0.0984869  
C        C      0.686200000000     0.872730000000     0.312150000000    -0.0984869  
C        C      0.564700000000     0.866230000000     0.292830000000    -0.0984869  
C        C      0.515800000000     0.879480000000     0.205730000000    -0.0984869  
C        C      0.387200000000     0.872100000000     0.192600000000    -0.0984869  
C        C      0.473400000000     0.718380000000     0.378950000000    -0.0984869  
C        C      0.547700000000     0.669660000000     0.322480000000    -0.0984869  
C        C      0.546900000000     0.577220000000     0.327300000000    -0.0984869  
C        C      0.408000000000     0.577320000000     0.437720000000    -0.0984869  
C        C      0.402300000000     0.670080000000     0.437370000000    -0.0984869  
C        C      0.476800000000     0.091770000000     0.361100000000    -0.0984869  
C        C      0.436200000000     0.187850000000     0.372730000000    -0.0984869  
C        C      0.314700000000     0.207170000000     0.366230000000    -0.0984869  
C        C      0.265800000000     0.294270000000     0.379480000000    -0.0984869  
C        C      0.137200000000     0.307400000000     0.372100000000    -0.0984869  
C        C      0.223400000000     0.121050000000     0.218380000000    -0.0984869  
C        C      0.297700000000     0.177520000000     0.169660000000    -0.0984869  
C        C      0.296900000000     0.172700000000     0.077220000000    -0.0984869  
C        C      0.158000000000     0.062280000000     0.077320000000    -0.0984869  
C        C      0.152300000000     0.062630000000     0.170080000000    -0.0984869  
C        C      0.976800000000     0.908230000000     0.638900000000    -0.0984869  
C        C      0.936200000000     0.812150000000     0.627270000000    -0.0984869  
C        C      0.814700000000     0.792830000000     0.633770000000    -0.0984869  
C        C      0.765800000000     0.705730000000     0.620520000000    -0.0984869  
C        C      0.637200000000     0.692600000000     0.627900000000    -0.0984869  
C        C      0.723400000000     0.878950000000     0.781620000000    -0.0984869  
C        C      0.797700000000     0.822480000000     0.830340000000    -0.0984869  
C        C      0.796900000000     0.827300000000     0.922780000000    -0.0984869  
C        C      0.658000000000     0.937720000000     0.922680000000    -0.0984869  
C        C      0.652300000000     0.937370000000     0.829920000000    -0.0984869  
S        S      0.779790000000     0.337060000000     0.118580000000    -0.0325411  
S        S      0.279790000000     0.662940000000     0.881420000000    -0.0325411  
S        S      0.529790000000     0.381420000000     0.837060000000    -0.0325411  
S        S      0.029790000000     0.618580000000     0.162940000000    -0.0325411  
S        S      0.970210000000     0.162940000000     0.618580000000    -0.0325411  
S        S      0.470210000000     0.837060000000     0.381420000000    -0.0325411  
S        S      0.220210000000     0.118580000000     0.337060000000    -0.0325411  
S        S      0.720210000000     0.881420000000     0.662940000000    -0.0325411  
N        N      0.769400000000     0.030010000000     0.115230000000    -0.158497   
N        N      0.269400000000     0.969990000000     0.884770000000    -0.158497   
N        N      0.519400000000     0.384770000000     0.530010000000    -0.158497   
N        N      0.019400000000     0.615230000000     0.469990000000    -0.158497   
N        N      0.980600000000     0.469990000000     0.615230000000    -0.158497   
N        N      0.480600000000     0.530010000000     0.384770000000    -0.158497   
N        N      0.230600000000     0.115230000000     0.030010000000    -0.158497   
N        N      0.730600000000     0.884770000000     0.969990000000    -0.158497   
O        O      0.487130000000     0.387010000000     0.246050000000    -0.317237   
O        O      0.676030000000     0.397330000000     0.364870000000    -0.317237   
O        O      0.987130000000     0.612990000000     0.753950000000    -0.317237   
O        O      0.176030000000     0.602670000000     0.635130000000    -0.317237   
O        O      0.237130000000     0.253950000000     0.887010000000    -0.317237   
O        O      0.426030000000     0.135130000000     0.897330000000    -0.317237   
O        O      0.737130000000     0.746050000000     0.112990000000    -0.317237   
O        O      0.926030000000     0.864870000000     0.102670000000    -0.317237   
O        O      0.262870000000     0.112990000000     0.746050000000    -0.317237   
O        O      0.073970000000     0.102670000000     0.864870000000    -0.317237   
O        O      0.762870000000     0.887010000000     0.253950000000    -0.317237   
O        O      0.573970000000     0.897330000000     0.135130000000    -0.317237   
O        O      0.512870000000     0.246050000000     0.387010000000    -0.317237   
O        O      0.323970000000     0.364870000000     0.397330000000    -0.317237   
O        O      0.012870000000     0.753950000000     0.612990000000    -0.317237   
O        O      0.823970000000     0.635130000000     0.602670000000    -0.317237   


