data_MIFKUJ_original

_audit_creation_method RASPA-1.0
_audit_creation_date 2022-1-30
_audit_author_name 'Felipe Lopes de Oliveira <felipe.lopes.oliveira@ibm.com>'

_cell_length_a    12.0239
_cell_length_b    13.482
_cell_length_c    14.0414
_cell_angle_alpha 70.491
_cell_angle_beta  77.141
_cell_angle_gamma 89.312
_cell_volume      2086.9

_symmetry_cell_setting          triclinic
_symmetry_space_group_name_Hall 'P 1'
_symmetry_space_group_name_H-M  'P 1'
_symmetry_Int_Tables_number     1

_symmetry_equiv_pos_as_xyz 'x,y,z'

loop_
_atom_site_label
_atom_site_type_symbol
_atom_site_fract_x
_atom_site_fract_y
_atom_site_fract_z
_atom_site_charge
Zn       Zn     0.072340000000     0.358110000000     0.983870000000     0.506735   
Zn       Zn     0.927660000000     0.641890000000     0.016130000000     0.506735   
H        H      0.066700000000     0.308700000000     0.691100000000     0.0583239  
H        H      0.052900000000     0.238000000000     0.563600000000     0.0583239  
H        H      0.966600000000     0.951100000000     0.784900000000     0.0583239  
H        H      0.977400000000     0.023600000000     0.911200000000     0.0583239  
H        H      0.094600000000     0.918700000000     0.630800000000     0.0583239  
H        H      0.775100000000     0.103200000000     0.648100000000     0.0583239  
H        H      0.655800000000     0.235000000000     0.659000000000     0.0583239  
H        H      0.809700000000     0.412400000000     0.353800000000     0.0583239  
H        H      0.933700000000     0.269200000000     0.352300000000     0.0583239  
H        H      0.747800000000     0.076700000000     0.272300000000     0.0583239  
H        H      0.862000000000     0.213700000000     0.135700000000     0.0583239  
H        H      0.647800000000     0.422300000000     0.217200000000     0.0583239  
H        H      0.529400000000     0.284500000000     0.342300000000     0.0583239  
H        H      0.695100000000     0.032200000000     0.473200000000     0.0583239  
H        H      0.491000000000     0.100200000000     0.219700000000     0.0583239  
H        H      0.382200000000     0.179600000000     0.100900000000     0.0583239  
H        H      0.141600000000     0.227200000000     0.317900000000     0.0583239  
H        H      0.243100000000     0.147800000000     0.444500000000     0.0583239  
H        H      0.933300000000     0.691300000000     0.308900000000     0.0583239  
H        H      0.947100000000     0.762000000000     0.436400000000     0.0583239  
H        H      0.033400000000     0.048900000000     0.215100000000     0.0583239  
H        H      0.022600000000     0.976400000000     0.088800000000     0.0583239  
H        H      0.905400000000     0.081300000000     0.369200000000     0.0583239  
H        H      0.224900000000     0.896800000000     0.351900000000     0.0583239  
H        H      0.344200000000     0.765000000000     0.341000000000     0.0583239  
H        H      0.190300000000     0.587600000000     0.646200000000     0.0583239  
H        H      0.066300000000     0.730800000000     0.647700000000     0.0583239  
H        H      0.252200000000     0.923300000000     0.727700000000     0.0583239  
H        H      0.138000000000     0.786300000000     0.864300000000     0.0583239  
H        H      0.352200000000     0.577700000000     0.782800000000     0.0583239  
H        H      0.470600000000     0.715500000000     0.657700000000     0.0583239  
H        H      0.304900000000     0.967800000000     0.526800000000     0.0583239  
H        H      0.509000000000     0.899800000000     0.780300000000     0.0583239  
H        H      0.617800000000     0.820400000000     0.899100000000     0.0583239  
H        H      0.858400000000     0.772800000000     0.682100000000     0.0583239  
H        H      0.756900000000     0.852200000000     0.555500000000     0.0583239  
C        C      0.023700000000     0.173500000000     0.812600000000     0.00777723 
C        C      0.045500000000     0.235700000000     0.710400000000     0.00777723 
C        C      0.037000000000     0.193600000000     0.634400000000     0.00777723 
C        C      0.006000000000     0.089200000000     0.659900000000     0.00777723 
C        C      0.985600000000     0.024500000000     0.765500000000     0.00777723 
C        C      0.993200000000     0.067200000000     0.840200000000     0.00777723 
C        C      0.029600000000     0.219600000000     0.895300000000     0.00777723 
C        C      0.998400000000     0.040600000000     0.579700000000     0.00777723 
C        C      0.056000000000     0.952500000000     0.577600000000     0.00777723 
C        C      0.941800000000     0.087100000000     0.501300000000     0.00777723 
C        C      0.867300000000     0.179500000000     0.500700000000     0.00777723 
C        C      0.782000000000     0.166500000000     0.590400000000     0.00777723 
C        C      0.710100000000     0.241500000000     0.596300000000     0.00777723 
C        C      0.716800000000     0.322900000000     0.514200000000     0.00777723 
C        C      0.804600000000     0.349000000000     0.411100000000     0.00777723 
C        C      0.877300000000     0.265400000000     0.413000000000     0.00777723 
C        C      0.629400000000     0.167400000000     0.321000000000     0.00777723 
C        C      0.727100000000     0.147300000000     0.259700000000     0.00777723 
C        C      0.796400000000     0.228800000000     0.179300000000     0.00777723 
C        C      0.768000000000     0.332400000000     0.164100000000     0.00777723 
C        C      0.667800000000     0.351800000000     0.227100000000     0.00777723 
C        C      0.598700000000     0.270400000000     0.302500000000     0.00777723 
C        C      0.843600000000     0.422100000000     0.084700000000     0.00777723 
C        C      0.560900000000     0.079900000000     0.409300000000     0.00777723 
C        C      0.614900000000     0.019600000000     0.484200000000     0.00777723 
C        C      0.443000000000     0.059800000000     0.423900000000     0.00777723 
C        C      0.377500000000     0.114700000000     0.345200000000     0.00777723 
C        C      0.419100000000     0.125200000000     0.242000000000     0.00777723 
C        C      0.352800000000     0.173300000000     0.171500000000     0.00777723 
C        C      0.254900000000     0.209900000000     0.194700000000     0.00777723 
C        C      0.213400000000     0.200500000000     0.298300000000     0.00777723 
C        C      0.273200000000     0.153300000000     0.374300000000     0.00777723 
C        C      0.196200000000     0.257200000000     0.093500000000     0.00777723 
C        C      0.976300000000     0.826500000000     0.187400000000     0.00777723 
C        C      0.954500000000     0.764300000000     0.289600000000     0.00777723 
C        C      0.963000000000     0.806400000000     0.365600000000     0.00777723 
C        C      0.994000000000     0.910800000000     0.340100000000     0.00777723 
C        C      0.014400000000     0.975500000000     0.234500000000     0.00777723 
C        C      0.006800000000     0.932800000000     0.159800000000     0.00777723 
C        C      0.970400000000     0.780400000000     0.104700000000     0.00777723 
C        C      0.001600000000     0.959400000000     0.420300000000     0.00777723 
C        C      0.944000000000     0.047500000000     0.422400000000     0.00777723 
C        C      0.058200000000     0.912900000000     0.498700000000     0.00777723 
C        C      0.132700000000     0.820500000000     0.499300000000     0.00777723 
C        C      0.218000000000     0.833500000000     0.409600000000     0.00777723 
C        C      0.289900000000     0.758500000000     0.403700000000     0.00777723 
C        C      0.283200000000     0.677100000000     0.485800000000     0.00777723 
C        C      0.195400000000     0.651000000000     0.588900000000     0.00777723 
C        C      0.122700000000     0.734600000000     0.587000000000     0.00777723 
C        C      0.370600000000     0.832600000000     0.679000000000     0.00777723 
C        C      0.272900000000     0.852700000000     0.740300000000     0.00777723 
C        C      0.203600000000     0.771200000000     0.820700000000     0.00777723 
C        C      0.232000000000     0.667600000000     0.835900000000     0.00777723 
C        C      0.332200000000     0.648200000000     0.772900000000     0.00777723 
C        C      0.401300000000     0.729600000000     0.697500000000     0.00777723 
C        C      0.156400000000     0.577900000000     0.915300000000     0.00777723 
C        C      0.439100000000     0.920100000000     0.590700000000     0.00777723 
C        C      0.385100000000     0.980400000000     0.515800000000     0.00777723 
C        C      0.557000000000     0.940200000000     0.576100000000     0.00777723 
C        C      0.622500000000     0.885300000000     0.654800000000     0.00777723 
C        C      0.580900000000     0.874800000000     0.758000000000     0.00777723 
C        C      0.647200000000     0.826700000000     0.828500000000     0.00777723 
C        C      0.745100000000     0.790100000000     0.805300000000     0.00777723 
C        C      0.786600000000     0.799500000000     0.701700000000     0.00777723 
C        C      0.726800000000     0.846700000000     0.625700000000     0.00777723 
C        C      0.803800000000     0.742800000000     0.906500000000     0.00777723 
O        O      0.991900000000     0.168700000000     0.987600000000    -0.302202   
O        O      0.072100000000     0.313700000000     0.863800000000    -0.302202   
O        O      0.917200000000     0.405260000000     0.013490000000    -0.302202   
O        O      0.827400000000     0.512160000000     0.091300000000    -0.302202   
O        O      0.249700000000     0.257500000000     0.007900000000    -0.302202   
O        O      0.118600000000     0.288100000000     0.119700000000    -0.302202   
O        O      0.008100000000     0.831300000000     0.012400000000    -0.302202   
O        O      0.927900000000     0.686300000000     0.136200000000    -0.302202   
O        O      0.082800000000     0.594740000000     0.986510000000    -0.302202   
O        O      0.172600000000     0.487840000000     0.908700000000    -0.302202   
O        O      0.750300000000     0.742500000000     0.992100000000    -0.302202   
O        O      0.881400000000     0.711900000000     0.880300000000    -0.302202   


