data_MIL-88C-open_original

_audit_creation_method RASPA-1.0
_audit_creation_date 2022-1-29
_audit_author_name 'Felipe Lopes de Oliveira <felipe.lopes.oliveira@ibm.com>'

_cell_length_a    18.7425
_cell_length_b    18.7529
_cell_length_c    18.7529
_cell_angle_alpha 120
_cell_angle_beta  90
_cell_angle_gamma 90
_cell_volume      5708.15

_symmetry_cell_setting          triclinic
_symmetry_space_group_name_Hall 'P 1'
_symmetry_space_group_name_H-M  'P 1'
_symmetry_Int_Tables_number     1

_symmetry_equiv_pos_as_xyz 'x,y,z'

loop_
_atom_site_label
_atom_site_type_symbol
_atom_site_fract_x
_atom_site_fract_y
_atom_site_fract_z
_atom_site_charge
Fe       Fe     0.250000000000     0.727148000000     0.273157000000     1.16393    
Fe       Fe     0.250000000000     0.726843000000     0.453991000000     1.16393    
Fe       Fe     0.250000000000     0.546009000000     0.272852000000     1.16393    
Fe       Fe     0.750000000000     0.273157000000     0.727148000000     1.16393    
Fe       Fe     0.750000000000     0.453991000000     0.726843000000     1.16393    
Fe       Fe     0.750000000000     0.272852000000     0.546009000000     1.16393    
H        H      0.809434000000     0.494573000000     0.988544000000     0.0416464  
H        H      0.809434000000     0.011456000000     0.506029000000     0.0416464  
H        H      0.809434000000     0.493971000000     0.505427000000     0.0416464  
H        H      0.690566000000     0.494573000000     0.988544000000     0.0416464  
H        H      0.690566000000     0.011456000000     0.506029000000     0.0416464  
H        H      0.690566000000     0.493971000000     0.505427000000     0.0416464  
H        H      0.190566000000     0.988544000000     0.494573000000     0.0416464  
H        H      0.190566000000     0.506029000000     0.011456000000     0.0416464  
H        H      0.190566000000     0.505427000000     0.493971000000     0.0416464  
H        H      0.309434000000     0.988544000000     0.494573000000     0.0416464  
H        H      0.309434000000     0.506029000000     0.011456000000     0.0416464  
H        H      0.309434000000     0.505427000000     0.493971000000     0.0416464  
H        H      0.886878000000     0.555133000000     0.109767000000     0.0416464  
H        H      0.886878000000     0.890233000000     0.445366000000     0.0416464  
H        H      0.886878000000     0.554634000000     0.444867000000     0.0416464  
H        H      0.613122000000     0.555133000000     0.109767000000     0.0416464  
H        H      0.613122000000     0.890233000000     0.445366000000     0.0416464  
H        H      0.613122000000     0.554634000000     0.444867000000     0.0416464  
H        H      0.113122000000     0.109767000000     0.555133000000     0.0416464  
H        H      0.113122000000     0.445366000000     0.890233000000     0.0416464  
H        H      0.113122000000     0.444867000000     0.554634000000     0.0416464  
H        H      0.386878000000     0.109767000000     0.555133000000     0.0416464  
H        H      0.386878000000     0.445366000000     0.890233000000     0.0416464  
H        H      0.386878000000     0.444867000000     0.554634000000     0.0416464  
H        H      0.991971000000     0.414499000000     0.828474000000     0.0416464  
H        H      0.991971000000     0.171526000000     0.586025000000     0.0416464  
H        H      0.991971000000     0.413975000000     0.585501000000     0.0416464  
H        H      0.508029000000     0.414499000000     0.828474000000     0.0416464  
H        H      0.508029000000     0.171526000000     0.586025000000     0.0416464  
H        H      0.508029000000     0.413975000000     0.585501000000     0.0416464  
H        H      0.008029000000     0.828474000000     0.414499000000     0.0416464  
H        H      0.008029000000     0.586025000000     0.171526000000     0.0416464  
H        H      0.008029000000     0.585501000000     0.413975000000     0.0416464  
H        H      0.491971000000     0.828474000000     0.414499000000     0.0416464  
H        H      0.491971000000     0.586025000000     0.171526000000     0.0416464  
H        H      0.491971000000     0.585501000000     0.413975000000     0.0416464  
C        C      0.155303000000     0.586130000000     0.171888000000     0.0516867  
C        C      0.155303000000     0.828112000000     0.414242000000     0.0516867  
C        C      0.155303000000     0.585758000000     0.413870000000     0.0516867  
C        C      0.344697000000     0.586130000000     0.171888000000     0.0516867  
C        C      0.344697000000     0.828112000000     0.414242000000     0.0516867  
C        C      0.344697000000     0.585758000000     0.413870000000     0.0516867  
C        C      0.844697000000     0.171888000000     0.586130000000     0.0516867  
C        C      0.844697000000     0.414243000000     0.828112000000     0.0516867  
C        C      0.844697000000     0.413870000000     0.585757000000     0.0516867  
C        C      0.655303000000     0.171888000000     0.586130000000     0.0516867  
C        C      0.655303000000     0.414243000000     0.828112000000     0.0516867  
C        C      0.655303000000     0.413870000000     0.585757000000     0.0516867  
C        C      0.894727000000     0.450045000000     0.899538000000     0.0516867  
C        C      0.894727000000     0.100462000000     0.550507000000     0.0516867  
C        C      0.894727000000     0.449493000000     0.549955000000     0.0516867  
C        C      0.605273000000     0.450045000000     0.899538000000     0.0516867  
C        C      0.605273000000     0.100462000000     0.550507000000     0.0516867  
C        C      0.605273000000     0.449493000000     0.549955000000     0.0516867  
C        C      0.105273000000     0.899538000000     0.450045000000     0.0516867  
C        C      0.105273000000     0.550507000000     0.100462000000     0.0516867  
C        C      0.105273000000     0.549955000000     0.449493000000     0.0516867  
C        C      0.394727000000     0.899538000000     0.450045000000     0.0516867  
C        C      0.394727000000     0.550507000000     0.100462000000     0.0516867  
C        C      0.394727000000     0.549955000000     0.449493000000     0.0516867  
C        C      0.866419000000     0.490107000000     0.979616000000     0.0516867  
C        C      0.866419000000     0.020384000000     0.510491000000     0.0516867  
C        C      0.866419000000     0.489509000000     0.509893000000     0.0516867  
C        C      0.633581000000     0.490107000000     0.979616000000     0.0516867  
C        C      0.633581000000     0.020384000000     0.510491000000     0.0516867  
C        C      0.633581000000     0.489509000000     0.509893000000     0.0516867  
C        C      0.133581000000     0.979616000000     0.490107000000     0.0516867  
C        C      0.133581000000     0.510491000000     0.020384000000     0.0516867  
C        C      0.133581000000     0.509893000000     0.489509000000     0.0516867  
C        C      0.366419000000     0.979616000000     0.490107000000     0.0516867  
C        C      0.366419000000     0.510491000000     0.020384000000     0.0516867  
C        C      0.366419000000     0.509893000000     0.489509000000     0.0516867  
C        C      0.910846000000     0.524826000000     0.049048000000     0.0516867  
C        C      0.910846000000     0.950952000000     0.475778000000     0.0516867  
C        C      0.910846000000     0.524221000000     0.475174000000     0.0516867  
C        C      0.589154000000     0.524826000000     0.049048000000     0.0516867  
C        C      0.589154000000     0.950952000000     0.475778000000     0.0516867  
C        C      0.589154000000     0.524221000000     0.475174000000     0.0516867  
C        C      0.089154000000     0.049048000000     0.524826000000     0.0516867  
C        C      0.089154000000     0.475779000000     0.950952000000     0.0516867  
C        C      0.089154000000     0.475174000000     0.524222000000     0.0516867  
C        C      0.410846000000     0.049048000000     0.524826000000     0.0516867  
C        C      0.410846000000     0.475779000000     0.950952000000     0.0516867  
C        C      0.410846000000     0.475174000000     0.524222000000     0.0516867  
C        C      0.985255000000     0.520424000000     0.040188000000     0.0516867  
C        C      0.985255000000     0.959812000000     0.480236000000     0.0516867  
C        C      0.985255000000     0.519764000000     0.479576000000     0.0516867  
C        C      0.514745000000     0.520424000000     0.040188000000     0.0516867  
C        C      0.514745000000     0.959812000000     0.480236000000     0.0516867  
C        C      0.514745000000     0.519764000000     0.479576000000     0.0516867  
C        C      0.014745000000     0.040188000000     0.520424000000     0.0516867  
C        C      0.014745000000     0.480236000000     0.959812000000     0.0516867  
C        C      0.014745000000     0.479576000000     0.519764000000     0.0516867  
C        C      0.485255000000     0.040188000000     0.520424000000     0.0516867  
C        C      0.485255000000     0.480236000000     0.959812000000     0.0516867  
C        C      0.485255000000     0.479576000000     0.519764000000     0.0516867  
C        C      0.969383000000     0.445261000000     0.889916000000     0.0516867  
C        C      0.969383000000     0.110084000000     0.555345000000     0.0516867  
C        C      0.969383000000     0.444655000000     0.554739000000     0.0516867  
C        C      0.530617000000     0.445261000000     0.889916000000     0.0516867  
C        C      0.530617000000     0.110084000000     0.555345000000     0.0516867  
C        C      0.530617000000     0.444655000000     0.554739000000     0.0516867  
C        C      0.030617000000     0.889916000000     0.445261000000     0.0516867  
C        C      0.030617000000     0.555345000000     0.110084000000     0.0516867  
C        C      0.030617000000     0.554739000000     0.444655000000     0.0516867  
C        C      0.469383000000     0.889916000000     0.445261000000     0.0516867  
C        C      0.469383000000     0.555345000000     0.110084000000     0.0516867  
C        C      0.469383000000     0.554739000000     0.444655000000     0.0516867  
O        O      0.250000000000     0.666667000000     0.333333000000    -0.381385   
O        O      0.750000000000     0.333333000000     0.666667000000    -0.381385   
O        O      0.177678000000     0.539865000000     0.198680000000    -0.381385   
O        O      0.177678000000     0.801320000000     0.341185000000    -0.381385   
O        O      0.177678000000     0.658815000000     0.460135000000    -0.381385   
O        O      0.322322000000     0.539865000000     0.198680000000    -0.381385   
O        O      0.322322000000     0.801320000000     0.341185000000    -0.381385   
O        O      0.322322000000     0.658815000000     0.460135000000    -0.381385   
O        O      0.822322000000     0.198680000000     0.539865000000    -0.381385   
O        O      0.822322000000     0.341185000000     0.801320000000    -0.381385   
O        O      0.822322000000     0.460135000000     0.658815000000    -0.381385   
O        O      0.677678000000     0.198680000000     0.539865000000    -0.381385   
O        O      0.677678000000     0.341185000000     0.801320000000    -0.381385   
O        O      0.677678000000     0.460135000000     0.658815000000    -0.381385   
O        O      0.250000000000     0.785466000000     0.571474000000    -0.381385   
O        O      0.250000000000     0.428526000000     0.213992000000    -0.381385   
O        O      0.250000000000     0.786008000000     0.214534000000    -0.381385   
O        O      0.750000000000     0.571474000000     0.785466000000    -0.381385   
O        O      0.750000000000     0.213992000000     0.428526000000    -0.381385   
O        O      0.750000000000     0.214534000000     0.786008000000    -0.381385   
O        O      0.177660000000     0.659239000000     0.198913000000    -0.381385   
O        O      0.177660000000     0.801087000000     0.460326000000    -0.381385   
O        O      0.177660000000     0.539674000000     0.340761000000    -0.381385   
O        O      0.322340000000     0.659239000000     0.198913000000    -0.381385   
O        O      0.322340000000     0.801087000000     0.460326000000    -0.381385   
O        O      0.322340000000     0.539674000000     0.340761000000    -0.381385   
O        O      0.822340000000     0.198913000000     0.659239000000    -0.381385   
O        O      0.822340000000     0.460326000000     0.801087000000    -0.381385   
O        O      0.822340000000     0.340761000000     0.539674000000    -0.381385   
O        O      0.677660000000     0.198913000000     0.659239000000    -0.381385   
O        O      0.677660000000     0.460326000000     0.801087000000    -0.381385   
O        O      0.677660000000     0.340761000000     0.539674000000    -0.381385   


