data_MIL-88A-dry_original

_audit_creation_method RASPA-1.0
_audit_creation_date 2022-1-29
_audit_author_name 'Felipe Lopes de Oliveira <felipe.lopes.oliveira@ibm.com>'

_cell_length_a    9.7798
_cell_length_b    9.7798
_cell_length_c    14.8265
_cell_angle_alpha 90
_cell_angle_beta  90
_cell_angle_gamma 120
_cell_volume      1228.09

_symmetry_cell_setting          triclinic
_symmetry_space_group_name_Hall 'P 1'
_symmetry_space_group_name_H-M  'P 1'
_symmetry_Int_Tables_number     1

_symmetry_equiv_pos_as_xyz 'x,y,z'

loop_
_atom_site_label
_atom_site_type_symbol
_atom_site_fract_x
_atom_site_fract_y
_atom_site_fract_z
_atom_site_charge
Fe       Fe     0.785200000000     0.214800000000     0.250000000000     1.20492    
Fe       Fe     0.785200000000     0.570400000000     0.250000000000     1.20492    
Fe       Fe     0.429600000000     0.214800000000     0.250000000000     1.20492    
Fe       Fe     0.214800000000     0.785200000000     0.750000000000     1.20492    
Fe       Fe     0.570400000000     0.785200000000     0.750000000000     1.20492    
Fe       Fe     0.214800000000     0.429600000000     0.750000000000     1.20492    
H        H      0.587800000000     0.175600000000     0.977100000000     0.0770765  
H        H      0.824400000000     0.412200000000     0.977100000000     0.0770765  
H        H      0.587800000000     0.412200000000     0.977100000000     0.0770765  
H        H      0.587800000000     0.175600000000     0.522900000000     0.0770765  
H        H      0.824400000000     0.412200000000     0.522900000000     0.0770765  
H        H      0.587800000000     0.412200000000     0.522900000000     0.0770765  
H        H      0.175600000000     0.587800000000     0.022900000000     0.0770765  
H        H      0.412200000000     0.824400000000     0.022900000000     0.0770765  
H        H      0.412200000000     0.587800000000     0.022900000000     0.0770765  
H        H      0.175600000000     0.587800000000     0.477100000000     0.0770765  
H        H      0.412200000000     0.824400000000     0.477100000000     0.0770765  
H        H      0.412200000000     0.587800000000     0.477100000000     0.0770765  
C        C      0.542900000000     0.085900000000     0.115700000000     0.157939   
C        C      0.914100000000     0.457000000000     0.115700000000     0.157939   
C        C      0.543000000000     0.457100000000     0.115700000000     0.157939   
C        C      0.542900000000     0.085900000000     0.384300000000     0.157939   
C        C      0.914100000000     0.457000000000     0.384300000000     0.157939   
C        C      0.543000000000     0.457100000000     0.384300000000     0.157939   
C        C      0.085900000000     0.542900000000     0.884300000000     0.157939   
C        C      0.457000000000     0.914100000000     0.884300000000     0.157939   
C        C      0.457100000000     0.543000000000     0.884300000000     0.157939   
C        C      0.085900000000     0.542900000000     0.615700000000     0.157939   
C        C      0.457000000000     0.914100000000     0.615700000000     0.157939   
C        C      0.457100000000     0.543000000000     0.615700000000     0.157939   
C        C      0.535400000000     0.070800000000     0.018600000000     0.157939   
C        C      0.929200000000     0.464600000000     0.018600000000     0.157939   
C        C      0.535400000000     0.464600000000     0.018600000000     0.157939   
C        C      0.535400000000     0.070800000000     0.481400000000     0.157939   
C        C      0.929200000000     0.464600000000     0.481400000000     0.157939   
C        C      0.535400000000     0.464600000000     0.481400000000     0.157939   
C        C      0.070800000000     0.535400000000     0.981400000000     0.157939   
C        C      0.464600000000     0.929200000000     0.981400000000     0.157939   
C        C      0.464600000000     0.535400000000     0.981400000000     0.157939   
C        C      0.070800000000     0.535400000000     0.518600000000     0.157939   
C        C      0.464600000000     0.929200000000     0.518600000000     0.157939   
C        C      0.464600000000     0.535400000000     0.518600000000     0.157939   
O        O      0.440000000000     0.110000000000     0.150000000000    -0.37328    
O        O      0.890000000000     0.330000000000     0.150000000000    -0.37328    
O        O      0.670000000000     0.560000000000     0.150000000000    -0.37328    
O        O      0.440000000000     0.110000000000     0.350000000000    -0.37328    
O        O      0.890000000000     0.330000000000     0.350000000000    -0.37328    
O        O      0.670000000000     0.560000000000     0.350000000000    -0.37328    
O        O      0.110000000000     0.440000000000     0.850000000000    -0.37328    
O        O      0.330000000000     0.890000000000     0.850000000000    -0.37328    
O        O      0.560000000000     0.670000000000     0.850000000000    -0.37328    
O        O      0.110000000000     0.440000000000     0.650000000000    -0.37328    
O        O      0.330000000000     0.890000000000     0.650000000000    -0.37328    
O        O      0.560000000000     0.670000000000     0.650000000000    -0.37328    
O        O      0.656800000000     0.077300000000     0.159700000000    -0.37328    
O        O      0.922700000000     0.579500000000     0.159700000000    -0.37328    
O        O      0.420500000000     0.343200000000     0.159700000000    -0.37328    
O        O      0.656800000000     0.077300000000     0.340300000000    -0.37328    
O        O      0.922700000000     0.579500000000     0.340300000000    -0.37328    
O        O      0.420500000000     0.343200000000     0.340300000000    -0.37328    
O        O      0.077300000000     0.656800000000     0.840300000000    -0.37328    
O        O      0.579500000000     0.922700000000     0.840300000000    -0.37328    
O        O      0.343200000000     0.420500000000     0.840300000000    -0.37328    
O        O      0.077300000000     0.656800000000     0.659700000000    -0.37328    
O        O      0.579500000000     0.922700000000     0.659700000000    -0.37328    
O        O      0.343200000000     0.420500000000     0.659700000000    -0.37328    
O        O      0.666700000000     0.333300000000     0.250000000000    -0.37328    
O        O      0.333300000000     0.666700000000     0.750000000000    -0.37328    
O        O      0.897700000000     0.102300000000     0.250000000000    -0.37328    
O        O      0.897700000000     0.795400000000     0.250000000000    -0.37328    
O        O      0.204600000000     0.102300000000     0.250000000000    -0.37328    
O        O      0.102300000000     0.897700000000     0.750000000000    -0.37328    
O        O      0.795400000000     0.897700000000     0.750000000000    -0.37328    
O        O      0.102300000000     0.204600000000     0.750000000000    -0.37328    


