data_MUVGOA_original

_audit_creation_method RASPA-1.0
_audit_creation_date 2022-1-28
_audit_author_name 'Felipe Lopes de Oliveira <felipe.lopes.oliveira@ibm.com>'

_cell_length_a    12.614
_cell_length_b    14.604
_cell_length_c    22.857
_cell_angle_alpha 90
_cell_angle_beta  90
_cell_angle_gamma 90
_cell_volume      4210.6

_symmetry_cell_setting          triclinic
_symmetry_space_group_name_Hall 'P 1'
_symmetry_space_group_name_H-M  'P 1'
_symmetry_Int_Tables_number     1

_symmetry_equiv_pos_as_xyz 'x,y,z'

loop_
_atom_site_label
_atom_site_type_symbol
_atom_site_fract_x
_atom_site_fract_y
_atom_site_fract_z
_atom_site_charge
Zn       Zn     0.500000000000     0.761420000000     0.750000000000     0.377593   
Zn       Zn     0.500000000000     0.738580000000     0.250000000000     0.377593   
Zn       Zn     0.500000000000     0.238580000000     0.250000000000     0.377593   
Zn       Zn     0.500000000000     0.261420000000     0.750000000000     0.377593   
H        H      0.073000000000     0.862000000000     0.904000000000     0.0546498  
H        H      0.201000000000     0.868000000000     0.840200000000     0.0546498  
H        H      0.210000000000     0.153000000000     0.845200000000     0.0546498  
H        H      0.080000000000     0.149000000000     0.918900000000     0.0546498  
H        H      0.652000000000     0.796000000000     0.950900000000     0.0546498  
H        H      0.638000000000     0.795800000000     0.856400000000     0.0546498  
H        H      0.351000000000     0.724000000000     0.854600000000     0.0546498  
H        H      0.341000000000     0.707000000000     0.951800000000     0.0546498  
H        H      0.927000000000     0.862000000000     0.596000000000     0.0546498  
H        H      0.799000000000     0.868000000000     0.659800000000     0.0546498  
H        H      0.790000000000     0.153000000000     0.654800000000     0.0546498  
H        H      0.920000000000     0.149000000000     0.581100000000     0.0546498  
H        H      0.348000000000     0.796000000000     0.549100000000     0.0546498  
H        H      0.362000000000     0.795800000000     0.643600000000     0.0546498  
H        H      0.649000000000     0.724000000000     0.645400000000     0.0546498  
H        H      0.659000000000     0.707000000000     0.548200000000     0.0546498  
H        H      0.073000000000     0.638000000000     0.096000000000     0.0546498  
H        H      0.201000000000     0.632000000000     0.159800000000     0.0546498  
H        H      0.210000000000     0.347000000000     0.154800000000     0.0546498  
H        H      0.080000000000     0.351000000000     0.081100000000     0.0546498  
H        H      0.652000000000     0.704000000000     0.049100000000     0.0546498  
H        H      0.638000000000     0.704200000000     0.143600000000     0.0546498  
H        H      0.351000000000     0.776000000000     0.145400000000     0.0546498  
H        H      0.341000000000     0.793000000000     0.048200000000     0.0546498  
H        H      0.927000000000     0.638000000000     0.404000000000     0.0546498  
H        H      0.799000000000     0.632000000000     0.340200000000     0.0546498  
H        H      0.790000000000     0.347000000000     0.345200000000     0.0546498  
H        H      0.920000000000     0.351000000000     0.418900000000     0.0546498  
H        H      0.348000000000     0.704000000000     0.450900000000     0.0546498  
H        H      0.362000000000     0.704200000000     0.356400000000     0.0546498  
H        H      0.649000000000     0.776000000000     0.354600000000     0.0546498  
H        H      0.659000000000     0.793000000000     0.451800000000     0.0546498  
H        H      0.927000000000     0.138000000000     0.096000000000     0.0546498  
H        H      0.799000000000     0.132000000000     0.159800000000     0.0546498  
H        H      0.790000000000     0.847000000000     0.154800000000     0.0546498  
H        H      0.920000000000     0.851000000000     0.081100000000     0.0546498  
H        H      0.348000000000     0.204000000000     0.049100000000     0.0546498  
H        H      0.362000000000     0.204200000000     0.143600000000     0.0546498  
H        H      0.649000000000     0.276000000000     0.145400000000     0.0546498  
H        H      0.659000000000     0.293000000000     0.048200000000     0.0546498  
H        H      0.073000000000     0.138000000000     0.404000000000     0.0546498  
H        H      0.201000000000     0.132000000000     0.340200000000     0.0546498  
H        H      0.210000000000     0.847000000000     0.345200000000     0.0546498  
H        H      0.080000000000     0.851000000000     0.418900000000     0.0546498  
H        H      0.652000000000     0.204000000000     0.450900000000     0.0546498  
H        H      0.638000000000     0.204200000000     0.356400000000     0.0546498  
H        H      0.351000000000     0.276000000000     0.354600000000     0.0546498  
H        H      0.341000000000     0.293000000000     0.451800000000     0.0546498  
H        H      0.927000000000     0.362000000000     0.904000000000     0.0546498  
H        H      0.799000000000     0.368000000000     0.840200000000     0.0546498  
H        H      0.790000000000     0.653000000000     0.845200000000     0.0546498  
H        H      0.920000000000     0.649000000000     0.918900000000     0.0546498  
H        H      0.348000000000     0.296000000000     0.950900000000     0.0546498  
H        H      0.362000000000     0.295800000000     0.856400000000     0.0546498  
H        H      0.649000000000     0.224000000000     0.854600000000     0.0546498  
H        H      0.659000000000     0.207000000000     0.951800000000     0.0546498  
H        H      0.073000000000     0.362000000000     0.596000000000     0.0546498  
H        H      0.201000000000     0.368000000000     0.659800000000     0.0546498  
H        H      0.210000000000     0.653000000000     0.654800000000     0.0546498  
H        H      0.080000000000     0.649000000000     0.581100000000     0.0546498  
H        H      0.652000000000     0.296000000000     0.549100000000     0.0546498  
H        H      0.638000000000     0.295800000000     0.643600000000     0.0546498  
H        H      0.351000000000     0.224000000000     0.645400000000     0.0546498  
H        H      0.341000000000     0.207000000000     0.548200000000     0.0546498  
C        C      0.185900000000     0.089750000000     0.860530000000     0.00759416 
C        C      0.224300000000     0.008280000000     0.835710000000     0.00759416 
C        C      0.345260000000     0.929900000000     0.766470000000     0.00759416 
C        C      0.344910000000     0.091760000000     0.768320000000     0.00759416 
C        C      0.303180000000     0.010140000000     0.789520000000     0.00759416 
C        C      0.585300000000     0.776600000000     0.875860000000     0.00759416 
C        C      0.588800000000     0.772220000000     0.936590000000     0.00759416 
C        C      0.496650000000     0.752300000000     0.967490000000     0.00759416 
C        C      0.182900000000     0.925680000000     0.856030000000     0.00759416 
C        C      0.404600000000     0.736600000000     0.935430000000     0.00759416 
C        C      0.976300000000     0.002100000000     0.966980000000     0.00759416 
C        C      0.908600000000     0.083900000000     0.962860000000     0.00759416 
C        C      0.908400000000     0.920500000000     0.959470000000     0.00759416 
C        C      0.105700000000     0.087400000000     0.902190000000     0.00759416 
C        C      0.063500000000     0.004320000000     0.920600000000     0.00759416 
C        C      0.409300000000     0.740400000000     0.874650000000     0.00759416 
C        C      0.103800000000     0.923500000000     0.897520000000     0.00759416 
C        C      0.814100000000     0.089750000000     0.639470000000     0.00759416 
C        C      0.775700000000     0.008280000000     0.664290000000     0.00759416 
C        C      0.654740000000     0.929900000000     0.733530000000     0.00759416 
C        C      0.655090000000     0.091760000000     0.731680000000     0.00759416 
C        C      0.696820000000     0.010140000000     0.710480000000     0.00759416 
C        C      0.414700000000     0.776600000000     0.624140000000     0.00759416 
C        C      0.411200000000     0.772220000000     0.563410000000     0.00759416 
C        C      0.503350000000     0.752300000000     0.532510000000     0.00759416 
C        C      0.817100000000     0.925680000000     0.643970000000     0.00759416 
C        C      0.595400000000     0.736600000000     0.564570000000     0.00759416 
C        C      0.023700000000     0.002100000000     0.533020000000     0.00759416 
C        C      0.091400000000     0.083900000000     0.537140000000     0.00759416 
C        C      0.091600000000     0.920500000000     0.540530000000     0.00759416 
C        C      0.894300000000     0.087400000000     0.597810000000     0.00759416 
C        C      0.936500000000     0.004320000000     0.579400000000     0.00759416 
C        C      0.590700000000     0.740400000000     0.625350000000     0.00759416 
C        C      0.896200000000     0.923500000000     0.602480000000     0.00759416 
C        C      0.185900000000     0.410250000000     0.139470000000     0.00759416 
C        C      0.224300000000     0.491720000000     0.164290000000     0.00759416 
C        C      0.345260000000     0.570100000000     0.233530000000     0.00759416 
C        C      0.344910000000     0.408240000000     0.231680000000     0.00759416 
C        C      0.303180000000     0.489860000000     0.210480000000     0.00759416 
C        C      0.585300000000     0.723400000000     0.124140000000     0.00759416 
C        C      0.588800000000     0.727780000000     0.063410000000     0.00759416 
C        C      0.496650000000     0.747700000000     0.032510000000     0.00759416 
C        C      0.182900000000     0.574320000000     0.143970000000     0.00759416 
C        C      0.404600000000     0.763400000000     0.064570000000     0.00759416 
C        C      0.976300000000     0.497900000000     0.033020000000     0.00759416 
C        C      0.908600000000     0.416100000000     0.037140000000     0.00759416 
C        C      0.908400000000     0.579500000000     0.040530000000     0.00759416 
C        C      0.105700000000     0.412600000000     0.097810000000     0.00759416 
C        C      0.063500000000     0.495680000000     0.079400000000     0.00759416 
C        C      0.409300000000     0.759600000000     0.125350000000     0.00759416 
C        C      0.103800000000     0.576500000000     0.102480000000     0.00759416 
C        C      0.814100000000     0.410250000000     0.360530000000     0.00759416 
C        C      0.775700000000     0.491720000000     0.335710000000     0.00759416 
C        C      0.654740000000     0.570100000000     0.266470000000     0.00759416 
C        C      0.655090000000     0.408240000000     0.268320000000     0.00759416 
C        C      0.696820000000     0.489860000000     0.289520000000     0.00759416 
C        C      0.414700000000     0.723400000000     0.375860000000     0.00759416 
C        C      0.411200000000     0.727780000000     0.436590000000     0.00759416 
C        C      0.503350000000     0.747700000000     0.467490000000     0.00759416 
C        C      0.817100000000     0.574320000000     0.356030000000     0.00759416 
C        C      0.595400000000     0.763400000000     0.435430000000     0.00759416 
C        C      0.023700000000     0.497900000000     0.466980000000     0.00759416 
C        C      0.091400000000     0.416100000000     0.462860000000     0.00759416 
C        C      0.091600000000     0.579500000000     0.459470000000     0.00759416 
C        C      0.894300000000     0.412600000000     0.402190000000     0.00759416 
C        C      0.936500000000     0.495680000000     0.420600000000     0.00759416 
C        C      0.590700000000     0.759600000000     0.374650000000     0.00759416 
C        C      0.896200000000     0.576500000000     0.397520000000     0.00759416 
C        C      0.814100000000     0.910250000000     0.139470000000     0.00759416 
C        C      0.775700000000     0.991720000000     0.164290000000     0.00759416 
C        C      0.654740000000     0.070100000000     0.233530000000     0.00759416 
C        C      0.655090000000     0.908240000000     0.231680000000     0.00759416 
C        C      0.696820000000     0.989860000000     0.210480000000     0.00759416 
C        C      0.414700000000     0.223400000000     0.124140000000     0.00759416 
C        C      0.411200000000     0.227780000000     0.063410000000     0.00759416 
C        C      0.503350000000     0.247700000000     0.032510000000     0.00759416 
C        C      0.817100000000     0.074320000000     0.143970000000     0.00759416 
C        C      0.595400000000     0.263400000000     0.064570000000     0.00759416 
C        C      0.023700000000     0.997900000000     0.033020000000     0.00759416 
C        C      0.091400000000     0.916100000000     0.037140000000     0.00759416 
C        C      0.091600000000     0.079500000000     0.040530000000     0.00759416 
C        C      0.894300000000     0.912600000000     0.097810000000     0.00759416 
C        C      0.936500000000     0.995680000000     0.079400000000     0.00759416 
C        C      0.590700000000     0.259600000000     0.125350000000     0.00759416 
C        C      0.896200000000     0.076500000000     0.102480000000     0.00759416 
C        C      0.185900000000     0.910250000000     0.360530000000     0.00759416 
C        C      0.224300000000     0.991720000000     0.335710000000     0.00759416 
C        C      0.345260000000     0.070100000000     0.266470000000     0.00759416 
C        C      0.344910000000     0.908240000000     0.268320000000     0.00759416 
C        C      0.303180000000     0.989860000000     0.289520000000     0.00759416 
C        C      0.585300000000     0.223400000000     0.375860000000     0.00759416 
C        C      0.588800000000     0.227780000000     0.436590000000     0.00759416 
C        C      0.496650000000     0.247700000000     0.467490000000     0.00759416 
C        C      0.182900000000     0.074320000000     0.356030000000     0.00759416 
C        C      0.404600000000     0.263400000000     0.435430000000     0.00759416 
C        C      0.976300000000     0.997900000000     0.466980000000     0.00759416 
C        C      0.908600000000     0.916100000000     0.462860000000     0.00759416 
C        C      0.908400000000     0.079500000000     0.459470000000     0.00759416 
C        C      0.105700000000     0.912600000000     0.402190000000     0.00759416 
C        C      0.063500000000     0.995680000000     0.420600000000     0.00759416 
C        C      0.409300000000     0.259600000000     0.374650000000     0.00759416 
C        C      0.103800000000     0.076500000000     0.397520000000     0.00759416 
C        C      0.814100000000     0.589750000000     0.860530000000     0.00759416 
C        C      0.775700000000     0.508280000000     0.835710000000     0.00759416 
C        C      0.654740000000     0.429900000000     0.766470000000     0.00759416 
C        C      0.655090000000     0.591760000000     0.768320000000     0.00759416 
C        C      0.696820000000     0.510140000000     0.789520000000     0.00759416 
C        C      0.414700000000     0.276600000000     0.875860000000     0.00759416 
C        C      0.411200000000     0.272220000000     0.936590000000     0.00759416 
C        C      0.503350000000     0.252300000000     0.967490000000     0.00759416 
C        C      0.817100000000     0.425680000000     0.856030000000     0.00759416 
C        C      0.595400000000     0.236600000000     0.935430000000     0.00759416 
C        C      0.023700000000     0.502100000000     0.966980000000     0.00759416 
C        C      0.091400000000     0.583900000000     0.962860000000     0.00759416 
C        C      0.091600000000     0.420500000000     0.959470000000     0.00759416 
C        C      0.894300000000     0.587400000000     0.902190000000     0.00759416 
C        C      0.936500000000     0.504320000000     0.920600000000     0.00759416 
C        C      0.590700000000     0.240400000000     0.874650000000     0.00759416 
C        C      0.896200000000     0.423500000000     0.897520000000     0.00759416 
C        C      0.185900000000     0.589750000000     0.639470000000     0.00759416 
C        C      0.224300000000     0.508280000000     0.664290000000     0.00759416 
C        C      0.345260000000     0.429900000000     0.733530000000     0.00759416 
C        C      0.344910000000     0.591760000000     0.731680000000     0.00759416 
C        C      0.303180000000     0.510140000000     0.710480000000     0.00759416 
C        C      0.585300000000     0.276600000000     0.624140000000     0.00759416 
C        C      0.588800000000     0.272220000000     0.563410000000     0.00759416 
C        C      0.496650000000     0.252300000000     0.532510000000     0.00759416 
C        C      0.182900000000     0.425680000000     0.643970000000     0.00759416 
C        C      0.404600000000     0.236600000000     0.564570000000     0.00759416 
C        C      0.976300000000     0.502100000000     0.533020000000     0.00759416 
C        C      0.908600000000     0.583900000000     0.537140000000     0.00759416 
C        C      0.908400000000     0.420500000000     0.540530000000     0.00759416 
C        C      0.105700000000     0.587400000000     0.597810000000     0.00759416 
C        C      0.063500000000     0.504320000000     0.579400000000     0.00759416 
C        C      0.409300000000     0.240400000000     0.625350000000     0.00759416 
C        C      0.103800000000     0.423500000000     0.602480000000     0.00759416 
N        N      0.379700000000     0.863170000000     0.748250000000    -0.151019   
N        N      0.378900000000     0.159110000000     0.751150000000    -0.151019   
N        N      0.861200000000     0.149600000000     0.958400000000    -0.151019   
N        N      0.496690000000     0.760040000000     0.844950000000    -0.151019   
N        N      0.859400000000     0.855600000000     0.952430000000    -0.151019   
N        N      0.620300000000     0.863170000000     0.751750000000    -0.151019   
N        N      0.621100000000     0.159110000000     0.748850000000    -0.151019   
N        N      0.138800000000     0.149600000000     0.541600000000    -0.151019   
N        N      0.503310000000     0.760040000000     0.655050000000    -0.151019   
N        N      0.140600000000     0.855600000000     0.547570000000    -0.151019   
N        N      0.379700000000     0.636830000000     0.251750000000    -0.151019   
N        N      0.378900000000     0.340890000000     0.248850000000    -0.151019   
N        N      0.861200000000     0.350400000000     0.041600000000    -0.151019   
N        N      0.496690000000     0.739960000000     0.155050000000    -0.151019   
N        N      0.859400000000     0.644400000000     0.047570000000    -0.151019   
N        N      0.620300000000     0.636830000000     0.248250000000    -0.151019   
N        N      0.621100000000     0.340890000000     0.251150000000    -0.151019   
N        N      0.138800000000     0.350400000000     0.458400000000    -0.151019   
N        N      0.503310000000     0.739960000000     0.344950000000    -0.151019   
N        N      0.140600000000     0.644400000000     0.452430000000    -0.151019   
N        N      0.620300000000     0.136830000000     0.251750000000    -0.151019   
N        N      0.621100000000     0.840890000000     0.248850000000    -0.151019   
N        N      0.138800000000     0.850400000000     0.041600000000    -0.151019   
N        N      0.503310000000     0.239960000000     0.155050000000    -0.151019   
N        N      0.140600000000     0.144400000000     0.047570000000    -0.151019   
N        N      0.379700000000     0.136830000000     0.248250000000    -0.151019   
N        N      0.378900000000     0.840890000000     0.251150000000    -0.151019   
N        N      0.861200000000     0.850400000000     0.458400000000    -0.151019   
N        N      0.496690000000     0.239960000000     0.344950000000    -0.151019   
N        N      0.859400000000     0.144400000000     0.452430000000    -0.151019   
N        N      0.620300000000     0.363170000000     0.748250000000    -0.151019   
N        N      0.621100000000     0.659110000000     0.751150000000    -0.151019   
N        N      0.138800000000     0.649600000000     0.958400000000    -0.151019   
N        N      0.503310000000     0.260040000000     0.844950000000    -0.151019   
N        N      0.140600000000     0.355600000000     0.952430000000    -0.151019   
N        N      0.379700000000     0.363170000000     0.751750000000    -0.151019   
N        N      0.378900000000     0.659110000000     0.748850000000    -0.151019   
N        N      0.861200000000     0.649600000000     0.541600000000    -0.151019   
N        N      0.496690000000     0.260040000000     0.655050000000    -0.151019   
N        N      0.859400000000     0.355600000000     0.547570000000    -0.151019   


