data_MUZHUL_original

_audit_creation_method RASPA-1.0
_audit_creation_date 2022-1-29
_audit_author_name 'Felipe Lopes de Oliveira <felipe.lopes.oliveira@ibm.com>'

_cell_length_a    7.3562
_cell_length_b    7.3562
_cell_length_c    16.3
_cell_angle_alpha 90.7568
_cell_angle_beta  90.7568
_cell_angle_gamma 95.9011
_cell_volume      877.208

_symmetry_cell_setting          triclinic
_symmetry_space_group_name_Hall 'P 1'
_symmetry_space_group_name_H-M  'P 1'
_symmetry_Int_Tables_number     1

_symmetry_equiv_pos_as_xyz 'x,y,z'

loop_
_atom_site_label
_atom_site_type_symbol
_atom_site_fract_x
_atom_site_fract_y
_atom_site_fract_z
_atom_site_charge
Zn       Zn     0.979580000000     0.020420000000     0.750000000000     0.523295   
Zn       Zn     0.020420000000     0.979580000000     0.250000000000     0.523295   
H        H      0.814400000000     0.037800000000     0.011400000000     0.0731063  
H        H      0.962200000000     0.185600000000     0.488600000000     0.0731063  
H        H      0.185600000000     0.962200000000     0.988600000000     0.0731063  
H        H      0.037800000000     0.814400000000     0.511400000000     0.0731063  
C        C      0.605100000000     0.035700000000     0.930100000000     0.116676   
C        C      0.416300000000     0.013700000000     0.922700000000     0.116676   
C        C      0.687600000000     0.022400000000     0.006800000000     0.116676   
C        C      0.732700000000     0.065500000000     0.858500000000     0.116676   
C        C      0.318600000000     0.033400000000     0.841500000000     0.116676   
C        C      0.964300000000     0.394900000000     0.569900000000     0.116676   
C        C      0.986300000000     0.583700000000     0.577300000000     0.116676   
C        C      0.977600000000     0.312400000000     0.493200000000     0.116676   
C        C      0.934500000000     0.267300000000     0.641500000000     0.116676   
C        C      0.966600000000     0.681400000000     0.658500000000     0.116676   
C        C      0.394900000000     0.964300000000     0.069900000000     0.116676   
C        C      0.583700000000     0.986300000000     0.077300000000     0.116676   
C        C      0.312400000000     0.977600000000     0.993200000000     0.116676   
C        C      0.267300000000     0.934500000000     0.141500000000     0.116676   
C        C      0.681400000000     0.966600000000     0.158500000000     0.116676   
C        C      0.035700000000     0.605100000000     0.430100000000     0.116676   
C        C      0.013700000000     0.416300000000     0.422700000000     0.116676   
C        C      0.022400000000     0.687600000000     0.506800000000     0.116676   
C        C      0.065500000000     0.732700000000     0.358500000000     0.116676   
C        C      0.033400000000     0.318600000000     0.341500000000     0.116676   
O        O      0.154100000000     0.972700000000     0.838100000000    -0.229534   
O        O      0.757900000000     0.930100000000     0.814500000000    -0.229534   
O        O      0.817100000000     0.215700000000     0.849800000000    -0.229534   
O        O      0.404900000000     0.109300000000     0.785800000000    -0.229534   
O        O      0.027300000000     0.845900000000     0.661900000000    -0.229534   
O        O      0.069900000000     0.242100000000     0.685500000000    -0.229534   
O        O      0.784300000000     0.182900000000     0.650200000000    -0.229534   
O        O      0.890700000000     0.595100000000     0.714200000000    -0.229534   
O        O      0.845900000000     0.027300000000     0.161900000000    -0.229534   
O        O      0.242100000000     0.069900000000     0.185500000000    -0.229534   
O        O      0.182900000000     0.784300000000     0.150200000000    -0.229534   
O        O      0.595100000000     0.890700000000     0.214200000000    -0.229534   
O        O      0.972700000000     0.154100000000     0.338100000000    -0.229534   
O        O      0.930100000000     0.757900000000     0.314500000000    -0.229534   
O        O      0.215700000000     0.817100000000     0.349800000000    -0.229534   
O        O      0.109300000000     0.404900000000     0.285800000000    -0.229534   


