data_NAYZUK_original

_audit_creation_method RASPA-1.0
_audit_creation_date 2022-1-28
_audit_author_name 'Felipe Lopes de Oliveira <felipe.lopes.oliveira@ibm.com>'

_cell_length_a    7.1812
_cell_length_b    21.893
_cell_length_c    21.893
_cell_angle_alpha 90
_cell_angle_beta  90
_cell_angle_gamma 90
_cell_volume      3441.97

_symmetry_cell_setting          triclinic
_symmetry_space_group_name_Hall 'P 1'
_symmetry_space_group_name_H-M  'P 1'
_symmetry_Int_Tables_number     1

_symmetry_equiv_pos_as_xyz 'x,y,z'

loop_
_atom_site_label
_atom_site_type_symbol
_atom_site_fract_x
_atom_site_fract_y
_atom_site_fract_z
_atom_site_charge
In       In     0.000000000000     0.500000000000     0.500000000000     2.79825    
In       In     0.000000000000     0.000000000000     0.000000000000     2.79825    
In       In     0.000000000000     0.000000000000     0.500000000000     2.79825    
In       In     0.000000000000     0.500000000000     0.000000000000     2.79825    
In       In     0.500000000000     0.500000000000     0.500000000000     2.79825    
In       In     0.500000000000     0.000000000000     0.000000000000     2.79825    
In       In     0.500000000000     0.000000000000     0.500000000000     2.79825    
In       In     0.500000000000     0.500000000000     0.000000000000     2.79825    
H        H      0.488500000000     0.303300000000     0.483600000000     0.0424942  
H        H      0.041200000000     0.354800000000     0.585500000000     0.0424942  
H        H      0.305600000000     0.302700000000     0.617300000000     0.0424942  
H        H      0.488500000000     0.196700000000     0.016400000000     0.0424942  
H        H      0.041200000000     0.145200000000     0.914500000000     0.0424942  
H        H      0.305600000000     0.197300000000     0.882700000000     0.0424942  
H        H      0.488500000000     0.016400000000     0.303300000000     0.0424942  
H        H      0.041200000000     0.914500000000     0.354800000000     0.0424942  
H        H      0.305600000000     0.882700000000     0.302700000000     0.0424942  
H        H      0.488500000000     0.483600000000     0.196700000000     0.0424942  
H        H      0.041200000000     0.585500000000     0.145200000000     0.0424942  
H        H      0.305600000000     0.617300000000     0.197300000000     0.0424942  
H        H      0.511500000000     0.696700000000     0.983600000000     0.0424942  
H        H      0.958800000000     0.645200000000     0.085500000000     0.0424942  
H        H      0.694400000000     0.697300000000     0.117300000000     0.0424942  
H        H      0.511500000000     0.803300000000     0.516400000000     0.0424942  
H        H      0.958800000000     0.854800000000     0.414500000000     0.0424942  
H        H      0.694400000000     0.802700000000     0.382700000000     0.0424942  
H        H      0.511500000000     0.983600000000     0.803300000000     0.0424942  
H        H      0.958800000000     0.085500000000     0.854800000000     0.0424942  
H        H      0.694400000000     0.117300000000     0.802700000000     0.0424942  
H        H      0.511500000000     0.516400000000     0.696700000000     0.0424942  
H        H      0.958800000000     0.414500000000     0.645200000000     0.0424942  
H        H      0.694400000000     0.382700000000     0.697300000000     0.0424942  
H        H      0.511500000000     0.696700000000     0.516400000000     0.0424942  
H        H      0.958800000000     0.645200000000     0.414500000000     0.0424942  
H        H      0.694400000000     0.697300000000     0.382700000000     0.0424942  
H        H      0.511500000000     0.803300000000     0.983600000000     0.0424942  
H        H      0.958800000000     0.854800000000     0.085500000000     0.0424942  
H        H      0.694400000000     0.802700000000     0.117300000000     0.0424942  
H        H      0.511500000000     0.983600000000     0.696700000000     0.0424942  
H        H      0.958800000000     0.085500000000     0.645200000000     0.0424942  
H        H      0.694400000000     0.117300000000     0.697300000000     0.0424942  
H        H      0.511500000000     0.516400000000     0.803300000000     0.0424942  
H        H      0.958800000000     0.414500000000     0.854800000000     0.0424942  
H        H      0.694400000000     0.382700000000     0.802700000000     0.0424942  
H        H      0.488500000000     0.303300000000     0.016400000000     0.0424942  
H        H      0.041200000000     0.354800000000     0.914500000000     0.0424942  
H        H      0.305600000000     0.302700000000     0.882700000000     0.0424942  
H        H      0.488500000000     0.196700000000     0.483600000000     0.0424942  
H        H      0.041200000000     0.145200000000     0.585500000000     0.0424942  
H        H      0.305600000000     0.197300000000     0.617300000000     0.0424942  
H        H      0.488500000000     0.016400000000     0.196700000000     0.0424942  
H        H      0.041200000000     0.914500000000     0.145200000000     0.0424942  
H        H      0.305600000000     0.882700000000     0.197300000000     0.0424942  
H        H      0.488500000000     0.483600000000     0.303300000000     0.0424942  
H        H      0.041200000000     0.585500000000     0.354800000000     0.0424942  
H        H      0.305600000000     0.617300000000     0.302700000000     0.0424942  
C        C      0.739400000000     0.381700000000     0.512400000000     0.075372   
C        C      0.744500000000     0.314300000000     0.521400000000     0.075372   
C        C      0.590900000000     0.282100000000     0.498700000000     0.075372   
C        C      0.896200000000     0.283500000000     0.548800000000     0.075372   
C        C      0.046800000000     0.312700000000     0.579900000000     0.075372   
C        C      0.203300000000     0.281200000000     0.602500000000     0.075372   
C        C      0.739400000000     0.118300000000     0.987600000000     0.075372   
C        C      0.744500000000     0.185700000000     0.978600000000     0.075372   
C        C      0.590900000000     0.217900000000     0.001300000000     0.075372   
C        C      0.896200000000     0.216500000000     0.951200000000     0.075372   
C        C      0.046800000000     0.187300000000     0.920100000000     0.075372   
C        C      0.203300000000     0.218800000000     0.897500000000     0.075372   
C        C      0.739400000000     0.987600000000     0.381700000000     0.075372   
C        C      0.744500000000     0.978600000000     0.314300000000     0.075372   
C        C      0.590900000000     0.001300000000     0.282100000000     0.075372   
C        C      0.896200000000     0.951200000000     0.283500000000     0.075372   
C        C      0.046800000000     0.920100000000     0.312700000000     0.075372   
C        C      0.203300000000     0.897500000000     0.281200000000     0.075372   
C        C      0.739400000000     0.512400000000     0.118300000000     0.075372   
C        C      0.744500000000     0.521400000000     0.185700000000     0.075372   
C        C      0.590900000000     0.498700000000     0.217900000000     0.075372   
C        C      0.896200000000     0.548800000000     0.216500000000     0.075372   
C        C      0.046800000000     0.579900000000     0.187300000000     0.075372   
C        C      0.203300000000     0.602500000000     0.218800000000     0.075372   
C        C      0.260600000000     0.618300000000     0.012400000000     0.075372   
C        C      0.255500000000     0.685700000000     0.021400000000     0.075372   
C        C      0.409100000000     0.717900000000     0.998700000000     0.075372   
C        C      0.103800000000     0.716500000000     0.048800000000     0.075372   
C        C      0.953200000000     0.687300000000     0.079900000000     0.075372   
C        C      0.796700000000     0.718800000000     0.102500000000     0.075372   
C        C      0.260600000000     0.881700000000     0.487600000000     0.075372   
C        C      0.255500000000     0.814300000000     0.478600000000     0.075372   
C        C      0.409100000000     0.782100000000     0.501300000000     0.075372   
C        C      0.103800000000     0.783500000000     0.451200000000     0.075372   
C        C      0.953200000000     0.812700000000     0.420100000000     0.075372   
C        C      0.796700000000     0.781200000000     0.397500000000     0.075372   
C        C      0.260600000000     0.012400000000     0.881700000000     0.075372   
C        C      0.255500000000     0.021400000000     0.814300000000     0.075372   
C        C      0.409100000000     0.998700000000     0.782100000000     0.075372   
C        C      0.103800000000     0.048800000000     0.783500000000     0.075372   
C        C      0.953200000000     0.079900000000     0.812700000000     0.075372   
C        C      0.796700000000     0.102500000000     0.781200000000     0.075372   
C        C      0.260600000000     0.487600000000     0.618300000000     0.075372   
C        C      0.255500000000     0.478600000000     0.685700000000     0.075372   
C        C      0.409100000000     0.501300000000     0.717900000000     0.075372   
C        C      0.103800000000     0.451200000000     0.716500000000     0.075372   
C        C      0.953200000000     0.420100000000     0.687300000000     0.075372   
C        C      0.796700000000     0.397500000000     0.718800000000     0.075372   
C        C      0.260600000000     0.618300000000     0.487600000000     0.075372   
C        C      0.255500000000     0.685700000000     0.478600000000     0.075372   
C        C      0.409100000000     0.717900000000     0.501300000000     0.075372   
C        C      0.103800000000     0.716500000000     0.451200000000     0.075372   
C        C      0.953200000000     0.687300000000     0.420100000000     0.075372   
C        C      0.796700000000     0.718800000000     0.397500000000     0.075372   
C        C      0.260600000000     0.881700000000     0.012400000000     0.075372   
C        C      0.255500000000     0.814300000000     0.021400000000     0.075372   
C        C      0.409100000000     0.782100000000     0.998700000000     0.075372   
C        C      0.103800000000     0.783500000000     0.048800000000     0.075372   
C        C      0.953200000000     0.812700000000     0.079900000000     0.075372   
C        C      0.796700000000     0.781200000000     0.102500000000     0.075372   
C        C      0.260600000000     0.012400000000     0.618300000000     0.075372   
C        C      0.255500000000     0.021400000000     0.685700000000     0.075372   
C        C      0.409100000000     0.998700000000     0.717900000000     0.075372   
C        C      0.103800000000     0.048800000000     0.716500000000     0.075372   
C        C      0.953200000000     0.079900000000     0.687300000000     0.075372   
C        C      0.796700000000     0.102500000000     0.718800000000     0.075372   
C        C      0.260600000000     0.487600000000     0.881700000000     0.075372   
C        C      0.255500000000     0.478600000000     0.814300000000     0.075372   
C        C      0.409100000000     0.501300000000     0.782100000000     0.075372   
C        C      0.103800000000     0.451200000000     0.783500000000     0.075372   
C        C      0.953200000000     0.420100000000     0.812700000000     0.075372   
C        C      0.796700000000     0.397500000000     0.781200000000     0.075372   
C        C      0.739400000000     0.381700000000     0.987600000000     0.075372   
C        C      0.744500000000     0.314300000000     0.978600000000     0.075372   
C        C      0.590900000000     0.282100000000     0.001300000000     0.075372   
C        C      0.896200000000     0.283500000000     0.951200000000     0.075372   
C        C      0.046800000000     0.312700000000     0.920100000000     0.075372   
C        C      0.203300000000     0.281200000000     0.897500000000     0.075372   
C        C      0.739400000000     0.118300000000     0.512400000000     0.075372   
C        C      0.744500000000     0.185700000000     0.521400000000     0.075372   
C        C      0.590900000000     0.217900000000     0.498700000000     0.075372   
C        C      0.896200000000     0.216500000000     0.548800000000     0.075372   
C        C      0.046800000000     0.187300000000     0.579900000000     0.075372   
C        C      0.203300000000     0.218800000000     0.602500000000     0.075372   
C        C      0.739400000000     0.987600000000     0.118300000000     0.075372   
C        C      0.744500000000     0.978600000000     0.185700000000     0.075372   
C        C      0.590900000000     0.001300000000     0.217900000000     0.075372   
C        C      0.896200000000     0.951200000000     0.216500000000     0.075372   
C        C      0.046800000000     0.920100000000     0.187300000000     0.075372   
C        C      0.203300000000     0.897500000000     0.218800000000     0.075372   
C        C      0.739400000000     0.512400000000     0.381700000000     0.075372   
C        C      0.744500000000     0.521400000000     0.314300000000     0.075372   
C        C      0.590900000000     0.498700000000     0.282100000000     0.075372   
C        C      0.896200000000     0.548800000000     0.283500000000     0.075372   
C        C      0.046800000000     0.579900000000     0.312700000000     0.075372   
C        C      0.203300000000     0.602500000000     0.281200000000     0.075372   
O        O      0.594600000000     0.407400000000     0.507700000000    -0.791535   
O        O      0.896600000000     0.407400000000     0.509500000000    -0.791535   
O        O      0.594600000000     0.092600000000     0.992300000000    -0.791535   
O        O      0.896600000000     0.092600000000     0.990500000000    -0.791535   
O        O      0.594600000000     0.992300000000     0.407400000000    -0.791535   
O        O      0.896600000000     0.990500000000     0.407400000000    -0.791535   
O        O      0.594600000000     0.507700000000     0.092600000000    -0.791535   
O        O      0.896600000000     0.509500000000     0.092600000000    -0.791535   
O        O      0.405400000000     0.592600000000     0.007700000000    -0.791535   
O        O      0.103400000000     0.592600000000     0.009500000000    -0.791535   
O        O      0.405400000000     0.907400000000     0.492300000000    -0.791535   
O        O      0.103400000000     0.907400000000     0.490500000000    -0.791535   
O        O      0.405400000000     0.007700000000     0.907400000000    -0.791535   
O        O      0.103400000000     0.009500000000     0.907400000000    -0.791535   
O        O      0.405400000000     0.492300000000     0.592600000000    -0.791535   
O        O      0.103400000000     0.490500000000     0.592600000000    -0.791535   
O        O      0.405400000000     0.592600000000     0.492300000000    -0.791535   
O        O      0.103400000000     0.592600000000     0.490500000000    -0.791535   
O        O      0.405400000000     0.907400000000     0.007700000000    -0.791535   
O        O      0.103400000000     0.907400000000     0.009500000000    -0.791535   
O        O      0.405400000000     0.007700000000     0.592600000000    -0.791535   
O        O      0.103400000000     0.009500000000     0.592600000000    -0.791535   
O        O      0.405400000000     0.492300000000     0.907400000000    -0.791535   
O        O      0.103400000000     0.490500000000     0.907400000000    -0.791535   
O        O      0.594600000000     0.407400000000     0.992300000000    -0.791535   
O        O      0.896600000000     0.407400000000     0.990500000000    -0.791535   
O        O      0.594600000000     0.092600000000     0.507700000000    -0.791535   
O        O      0.896600000000     0.092600000000     0.509500000000    -0.791535   
O        O      0.594600000000     0.992300000000     0.092600000000    -0.791535   
O        O      0.896600000000     0.990500000000     0.092600000000    -0.791535   
O        O      0.594600000000     0.507700000000     0.407400000000    -0.791535   
O        O      0.896600000000     0.509500000000     0.407400000000    -0.791535   
O        O      0.745500000000     0.534200000000     0.534200000000    -0.791535   
O        O      0.745500000000     0.965800000000     0.965800000000    -0.791535   
O        O      0.745500000000     0.965800000000     0.534200000000    -0.791535   
O        O      0.745500000000     0.534200000000     0.965800000000    -0.791535   
O        O      0.254500000000     0.465800000000     0.034200000000    -0.791535   
O        O      0.254500000000     0.034200000000     0.465800000000    -0.791535   
O        O      0.254500000000     0.034200000000     0.034200000000    -0.791535   
O        O      0.254500000000     0.465800000000     0.465800000000    -0.791535   


