data_NAZBAT_original

_audit_creation_method RASPA-1.0
_audit_creation_date 2022-1-29
_audit_author_name 'Felipe Lopes de Oliveira <felipe.lopes.oliveira@ibm.com>'

_cell_length_a    14.659
_cell_length_b    14.659
_cell_length_c    19.2795
_cell_angle_alpha 112.344
_cell_angle_beta  112.344
_cell_angle_gamma 90
_cell_volume      3493.18

_symmetry_cell_setting          triclinic
_symmetry_space_group_name_Hall 'P 1'
_symmetry_space_group_name_H-M  'P 1'
_symmetry_Int_Tables_number     1

_symmetry_equiv_pos_as_xyz 'x,y,z'

loop_
_atom_site_label
_atom_site_type_symbol
_atom_site_fract_x
_atom_site_fract_y
_atom_site_fract_z
_atom_site_charge
In       In     0.887110000000     0.637110000000     0.274220000000     2.41058    
In       In     0.637110000000     0.887110000000     0.774220000000     2.41058    
In       In     0.112890000000     0.362890000000     0.725780000000     2.41058    
In       In     0.362890000000     0.112890000000     0.225780000000     2.41058    
H        H      0.692500000000     0.673900000000     0.039400000000     0.062539   
H        H      0.646800000000     0.714600000000     0.927400000000     0.062539   
H        H      0.937900000000     0.902800000000     0.973400000000     0.062539   
H        H      0.095300000000     0.953600000000     0.074400000000     0.062539   
H        H      0.139600000000     0.911500000000     0.186400000000     0.062539   
H        H      0.025100000000     0.813300000000     0.193600000000     0.062539   
H        H      0.846900000000     0.365500000000     0.039400000000     0.062539   
H        H      0.780600000000     0.212800000000     0.927400000000     0.062539   
H        H      0.535500000000     0.070600000000     0.973400000000     0.062539   
H        H      0.479100000000     0.120800000000     0.074400000000     0.062539   
H        H      0.546800000000     0.274900000000     0.186400000000     0.062539   
H        H      0.668500000000     0.380300000000     0.193600000000     0.062539   
H        H      0.673900000000     0.846900000000     0.539400000000     0.062539   
H        H      0.714600000000     0.780600000000     0.427400000000     0.062539   
H        H      0.902800000000     0.535500000000     0.473400000000     0.062539   
H        H      0.953600000000     0.479100000000     0.574400000000     0.062539   
H        H      0.911500000000     0.546800000000     0.686400000000     0.062539   
H        H      0.813300000000     0.668500000000     0.693600000000     0.062539   
H        H      0.365500000000     0.692500000000     0.539400000000     0.062539   
H        H      0.212800000000     0.646800000000     0.427400000000     0.062539   
H        H      0.070600000000     0.937900000000     0.473400000000     0.062539   
H        H      0.120800000000     0.095300000000     0.574400000000     0.062539   
H        H      0.274900000000     0.139600000000     0.686400000000     0.062539   
H        H      0.380300000000     0.025100000000     0.693600000000     0.062539   
H        H      0.307500000000     0.326100000000     0.960600000000     0.062539   
H        H      0.353200000000     0.285400000000     0.072600000000     0.062539   
H        H      0.062100000000     0.097200000000     0.026600000000     0.062539   
H        H      0.904700000000     0.046400000000     0.925600000000     0.062539   
H        H      0.860400000000     0.088500000000     0.813600000000     0.062539   
H        H      0.974900000000     0.186700000000     0.806400000000     0.062539   
H        H      0.153100000000     0.634500000000     0.960600000000     0.062539   
H        H      0.219400000000     0.787200000000     0.072600000000     0.062539   
H        H      0.464500000000     0.929400000000     0.026600000000     0.062539   
H        H      0.520900000000     0.879200000000     0.925600000000     0.062539   
H        H      0.453200000000     0.725100000000     0.813600000000     0.062539   
H        H      0.331500000000     0.619700000000     0.806400000000     0.062539   
H        H      0.326100000000     0.153100000000     0.460600000000     0.062539   
H        H      0.285400000000     0.219400000000     0.572600000000     0.062539   
H        H      0.097200000000     0.464500000000     0.526600000000     0.062539   
H        H      0.046400000000     0.520900000000     0.425600000000     0.062539   
H        H      0.088500000000     0.453200000000     0.313600000000     0.062539   
H        H      0.186700000000     0.331500000000     0.306400000000     0.062539   
H        H      0.634500000000     0.307500000000     0.460600000000     0.062539   
H        H      0.787200000000     0.353200000000     0.572600000000     0.062539   
H        H      0.929400000000     0.062100000000     0.526600000000     0.062539   
H        H      0.879200000000     0.904700000000     0.425600000000     0.062539   
H        H      0.725100000000     0.860400000000     0.313600000000     0.062539   
H        H      0.619700000000     0.974900000000     0.306400000000     0.062539   
C        C      0.778470000000     0.792770000000     0.959540000000     0.0354239  
C        C      0.879920000000     0.825320000000     0.019840000000     0.0354239  
C        C      0.908490000000     0.797190000000     0.087780000000     0.0354239  
C        C      0.836100000000     0.739600000000     0.093000000000     0.0354239  
C        C      0.739570000000     0.710670000000     0.034540000000     0.0354239  
C        C      0.711990000000     0.736390000000     0.967580000000     0.0354239  
C        C      0.954040000000     0.884440000000     0.017280000000     0.0354239  
C        C      0.048050000000     0.914950000000     0.077700000000     0.0354239  
C        C      0.075230000000     0.889130000000     0.144860000000     0.0354239  
C        C      0.006590000000     0.830890000000     0.149180000000     0.0354239  
C        C      0.735840000000     0.823040000000     0.887880000000     0.0354239  
C        C      0.860420000000     0.708320000000     0.163040000000     0.0354239  
C        C      0.681070000000     0.166770000000     0.959540000000     0.0354239  
C        C      0.639920000000     0.194520000000     0.019840000000     0.0354239  
C        C      0.679290000000     0.290590000000     0.087780000000     0.0354239  
C        C      0.756900000000     0.353400000000     0.093000000000     0.0354239  
C        C      0.794970000000     0.323870000000     0.034540000000     0.0354239  
C        C      0.755590000000     0.231190000000     0.967580000000     0.0354239  
C        C      0.563240000000     0.132840000000     0.017280000000     0.0354239  
C        C      0.529650000000     0.162750000000     0.077700000000     0.0354239  
C        C      0.569630000000     0.255730000000     0.144860000000     0.0354239  
C        C      0.642590000000     0.318290000000     0.149180000000     0.0354239  
C        C      0.652040000000     0.064840000000     0.887880000000     0.0354239  
C        C      0.802620000000     0.454720000000     0.163040000000     0.0354239  
C        C      0.792770000000     0.681070000000     0.459540000000     0.0354239  
C        C      0.825320000000     0.639920000000     0.519840000000     0.0354239  
C        C      0.797190000000     0.679290000000     0.587780000000     0.0354239  
C        C      0.739600000000     0.756900000000     0.593000000000     0.0354239  
C        C      0.710670000000     0.794970000000     0.534540000000     0.0354239  
C        C      0.736390000000     0.755590000000     0.467580000000     0.0354239  
C        C      0.884440000000     0.563240000000     0.517280000000     0.0354239  
C        C      0.914950000000     0.529650000000     0.577700000000     0.0354239  
C        C      0.889130000000     0.569630000000     0.644860000000     0.0354239  
C        C      0.830890000000     0.642590000000     0.649180000000     0.0354239  
C        C      0.823040000000     0.652040000000     0.387880000000     0.0354239  
C        C      0.708320000000     0.802620000000     0.663040000000     0.0354239  
C        C      0.166770000000     0.778470000000     0.459540000000     0.0354239  
C        C      0.194520000000     0.879920000000     0.519840000000     0.0354239  
C        C      0.290590000000     0.908490000000     0.587780000000     0.0354239  
C        C      0.353400000000     0.836100000000     0.593000000000     0.0354239  
C        C      0.323870000000     0.739570000000     0.534540000000     0.0354239  
C        C      0.231190000000     0.711990000000     0.467580000000     0.0354239  
C        C      0.132840000000     0.954040000000     0.517280000000     0.0354239  
C        C      0.162750000000     0.048050000000     0.577700000000     0.0354239  
C        C      0.255730000000     0.075230000000     0.644860000000     0.0354239  
C        C      0.318290000000     0.006590000000     0.649180000000     0.0354239  
C        C      0.064840000000     0.735840000000     0.387880000000     0.0354239  
C        C      0.454720000000     0.860420000000     0.663040000000     0.0354239  
C        C      0.221530000000     0.207230000000     0.040460000000     0.0354239  
C        C      0.120080000000     0.174680000000     0.980160000000     0.0354239  
C        C      0.091510000000     0.202810000000     0.912220000000     0.0354239  
C        C      0.163900000000     0.260400000000     0.907000000000     0.0354239  
C        C      0.260430000000     0.289330000000     0.965460000000     0.0354239  
C        C      0.288010000000     0.263610000000     0.032420000000     0.0354239  
C        C      0.045960000000     0.115560000000     0.982720000000     0.0354239  
C        C      0.951950000000     0.085050000000     0.922300000000     0.0354239  
C        C      0.924770000000     0.110870000000     0.855140000000     0.0354239  
C        C      0.993410000000     0.169110000000     0.850820000000     0.0354239  
C        C      0.264160000000     0.176960000000     0.112120000000     0.0354239  
C        C      0.139580000000     0.291680000000     0.836960000000     0.0354239  
C        C      0.318930000000     0.833230000000     0.040460000000     0.0354239  
C        C      0.360080000000     0.805480000000     0.980160000000     0.0354239  
C        C      0.320710000000     0.709410000000     0.912220000000     0.0354239  
C        C      0.243100000000     0.646600000000     0.907000000000     0.0354239  
C        C      0.205030000000     0.676130000000     0.965460000000     0.0354239  
C        C      0.244410000000     0.768810000000     0.032420000000     0.0354239  
C        C      0.436760000000     0.867160000000     0.982720000000     0.0354239  
C        C      0.470350000000     0.837250000000     0.922300000000     0.0354239  
C        C      0.430370000000     0.744270000000     0.855140000000     0.0354239  
C        C      0.357410000000     0.681710000000     0.850820000000     0.0354239  
C        C      0.347960000000     0.935160000000     0.112120000000     0.0354239  
C        C      0.197380000000     0.545280000000     0.836960000000     0.0354239  
C        C      0.207230000000     0.318930000000     0.540460000000     0.0354239  
C        C      0.174680000000     0.360080000000     0.480160000000     0.0354239  
C        C      0.202810000000     0.320710000000     0.412220000000     0.0354239  
C        C      0.260400000000     0.243100000000     0.407000000000     0.0354239  
C        C      0.289330000000     0.205030000000     0.465460000000     0.0354239  
C        C      0.263610000000     0.244410000000     0.532420000000     0.0354239  
C        C      0.115560000000     0.436760000000     0.482720000000     0.0354239  
C        C      0.085050000000     0.470350000000     0.422300000000     0.0354239  
C        C      0.110870000000     0.430370000000     0.355140000000     0.0354239  
C        C      0.169110000000     0.357410000000     0.350820000000     0.0354239  
C        C      0.176960000000     0.347960000000     0.612120000000     0.0354239  
C        C      0.291680000000     0.197380000000     0.336960000000     0.0354239  
C        C      0.833230000000     0.221530000000     0.540460000000     0.0354239  
C        C      0.805480000000     0.120080000000     0.480160000000     0.0354239  
C        C      0.709410000000     0.091510000000     0.412220000000     0.0354239  
C        C      0.646600000000     0.163900000000     0.407000000000     0.0354239  
C        C      0.676130000000     0.260430000000     0.465460000000     0.0354239  
C        C      0.768810000000     0.288010000000     0.532420000000     0.0354239  
C        C      0.867160000000     0.045960000000     0.482720000000     0.0354239  
C        C      0.837250000000     0.951950000000     0.422300000000     0.0354239  
C        C      0.744270000000     0.924770000000     0.355140000000     0.0354239  
C        C      0.681710000000     0.993410000000     0.350820000000     0.0354239  
C        C      0.935160000000     0.264160000000     0.612120000000     0.0354239  
C        C      0.545280000000     0.139580000000     0.336960000000     0.0354239  
O        O      0.924560000000     0.653160000000     0.173720000000    -0.501403   
O        O      0.784570000000     0.880570000000     0.877740000000    -0.501403   
O        O      0.646160000000     0.792360000000     0.841120000000    -0.501403   
O        O      0.812600000000     0.732800000000     0.206600000000    -0.501403   
O        O      0.749160000000     0.520560000000     0.173720000000    -0.501403   
O        O      0.593170000000     0.997170000000     0.877740000000    -0.501403   
O        O      0.694960000000     0.048760000000     0.841120000000    -0.501403   
O        O      0.894000000000     0.473800000000     0.206600000000    -0.501403   
O        O      0.653160000000     0.749160000000     0.673720000000    -0.501403   
O        O      0.880570000000     0.593170000000     0.377740000000    -0.501403   
O        O      0.792360000000     0.694960000000     0.341120000000    -0.501403   
O        O      0.732800000000     0.894000000000     0.706600000000    -0.501403   
O        O      0.520560000000     0.924560000000     0.673720000000    -0.501403   
O        O      0.997170000000     0.784570000000     0.377740000000    -0.501403   
O        O      0.048760000000     0.646160000000     0.341120000000    -0.501403   
O        O      0.473800000000     0.812600000000     0.706600000000    -0.501403   
O        O      0.075440000000     0.346840000000     0.826280000000    -0.501403   
O        O      0.215430000000     0.119430000000     0.122260000000    -0.501403   
O        O      0.353840000000     0.207640000000     0.158880000000    -0.501403   
O        O      0.187400000000     0.267200000000     0.793400000000    -0.501403   
O        O      0.250840000000     0.479440000000     0.826280000000    -0.501403   
O        O      0.406830000000     0.002830000000     0.122260000000    -0.501403   
O        O      0.305040000000     0.951240000000     0.158880000000    -0.501403   
O        O      0.106000000000     0.526200000000     0.793400000000    -0.501403   
O        O      0.346840000000     0.250840000000     0.326280000000    -0.501403   
O        O      0.119430000000     0.406830000000     0.622260000000    -0.501403   
O        O      0.207640000000     0.305040000000     0.658880000000    -0.501403   
O        O      0.267200000000     0.106000000000     0.293400000000    -0.501403   
O        O      0.479440000000     0.075440000000     0.326280000000    -0.501403   
O        O      0.002830000000     0.215430000000     0.622260000000    -0.501403   
O        O      0.951240000000     0.353840000000     0.658880000000    -0.501403   
O        O      0.526200000000     0.187400000000     0.293400000000    -0.501403   


