data_NEHNEV_original

_audit_creation_method RASPA-1.0
_audit_creation_date 2022-1-29
_audit_author_name 'Felipe Lopes de Oliveira <felipe.lopes.oliveira@ibm.com>'

_cell_length_a    10.6549
_cell_length_b    14.5638
_cell_length_c    16.0435
_cell_angle_alpha 99.783
_cell_angle_beta  102.396
_cell_angle_gamma 101.834
_cell_volume      2319.48

_symmetry_cell_setting          triclinic
_symmetry_space_group_name_Hall 'P 1'
_symmetry_space_group_name_H-M  'P 1'
_symmetry_Int_Tables_number     1

_symmetry_equiv_pos_as_xyz 'x,y,z'

loop_
_atom_site_label
_atom_site_type_symbol
_atom_site_fract_x
_atom_site_fract_y
_atom_site_fract_z
_atom_site_charge
Zn       Zn     0.224300000000     0.375100000000     0.475190000000     0.48831    
Zn       Zn     0.775700000000     0.624900000000     0.524810000000     0.48831    
Zn       Zn     0.000000000000     0.500000000000     0.500000000000     0.48831    
H        H      0.099000000000     0.641900000000     0.298800000000     0.0788743  
H        H      0.427800000000     0.550300000000     0.337000000000     0.0788743  
H        H      0.083800000000     0.512400000000     0.708800000000     0.0788743  
H        H      0.110000000000     0.605900000000     0.847800000000     0.0788743  
H        H      0.509800000000     0.666300000000     0.885400000000     0.0788743  
H        H      0.478300000000     0.579700000000     0.743100000000     0.0788743  
H        H      0.410500000000     0.084200000000     0.595000000000     0.0788743  
H        H      0.547900000000     0.063600000000     0.386200000000     0.0788743  
H        H      0.628800000000     0.257200000000     0.460500000000     0.0788743  
H        H      0.271300000000     0.171200000000     0.493500000000     0.0788743  
H        H      0.515400000000     0.385100000000     0.452900000000     0.0788743  
H        H      0.511100000000     0.649200000000     0.254600000000     0.0788743  
H        H      0.776500000000     0.985500000000     0.234800000000     0.0788743  
H        H      0.535000000000     0.160200000000     0.225400000000     0.0788743  
H        H      0.941500000000     0.106100000000     0.332200000000     0.0788743  
H        H      0.700600000000     0.281900000000     0.321400000000     0.0788743  
H        H      0.605500000000     0.927400000000     0.086200000000     0.0788743  
H        H      0.590600000000     0.874400000000     0.162500000000     0.0788743  
H        H      0.249600000000     0.766700000000     0.091700000000     0.0788743  
H        H      0.321700000000     0.858100000000     0.167700000000     0.0788743  
H        H      0.178000000000     0.734700000000     0.210500000000     0.0788743  
H        H      0.499100000000     0.733200000000     0.035800000000     0.0788743  
H        H      0.491200000000     0.796200000000     0.964900000000     0.0788743  
H        H      0.332500000000     0.965300000000     0.052100000000     0.0788743  
H        H      0.367700000000     0.919400000000     0.967100000000     0.0788743  
H        H      0.240200000000     0.868400000000     0.991300000000     0.0788743  
H        H      0.901000000000     0.358100000000     0.701200000000     0.0788743  
H        H      0.572200000000     0.449700000000     0.663000000000     0.0788743  
H        H      0.916200000000     0.487600000000     0.291200000000     0.0788743  
H        H      0.890000000000     0.394100000000     0.152200000000     0.0788743  
H        H      0.490200000000     0.333700000000     0.114600000000     0.0788743  
H        H      0.521700000000     0.420300000000     0.256900000000     0.0788743  
H        H      0.589500000000     0.915800000000     0.405000000000     0.0788743  
H        H      0.452100000000     0.936400000000     0.613800000000     0.0788743  
H        H      0.371200000000     0.742800000000     0.539500000000     0.0788743  
H        H      0.728700000000     0.828800000000     0.506500000000     0.0788743  
H        H      0.484600000000     0.614900000000     0.547100000000     0.0788743  
H        H      0.488900000000     0.350800000000     0.745400000000     0.0788743  
H        H      0.223500000000     0.014500000000     0.765200000000     0.0788743  
H        H      0.465000000000     0.839800000000     0.774600000000     0.0788743  
H        H      0.058500000000     0.893900000000     0.667800000000     0.0788743  
H        H      0.299400000000     0.718100000000     0.678600000000     0.0788743  
H        H      0.394500000000     0.072600000000     0.913800000000     0.0788743  
H        H      0.409400000000     0.125600000000     0.837500000000     0.0788743  
H        H      0.750400000000     0.233300000000     0.908300000000     0.0788743  
H        H      0.678300000000     0.141900000000     0.832300000000     0.0788743  
H        H      0.822000000000     0.265300000000     0.789500000000     0.0788743  
H        H      0.500900000000     0.266800000000     0.964200000000     0.0788743  
H        H      0.508800000000     0.203800000000     0.035100000000     0.0788743  
H        H      0.667500000000     0.034700000000     0.947900000000     0.0788743  
H        H      0.632300000000     0.080600000000     0.032900000000     0.0788743  
H        H      0.759800000000     0.131600000000     0.008700000000     0.0788743  
C        C      0.206500000000     0.525900000000     0.387400000000     0.00354781 
C        C      0.255500000000     0.587400000000     0.328000000000     0.00354781 
C        C      0.182200000000     0.642200000000     0.289300000000     0.00354781 
C        C      0.377500000000     0.588900000000     0.312600000000     0.00354781 
C        C      0.261200000000     0.480100000000     0.625200000000     0.00354781 
C        C      0.278000000000     0.535700000000     0.713200000000     0.00354781 
C        C      0.168300000000     0.544400000000     0.743700000000     0.00354781 
C        C      0.183500000000     0.600900000000     0.826600000000     0.00354781 
C        C      0.312100000000     0.650000000000     0.877000000000     0.00354781 
C        C      0.424900000000     0.638600000000     0.849200000000     0.00354781 
C        C      0.405200000000     0.584000000000     0.765100000000     0.00354781 
C        C      0.447700000000     0.050600000000     0.556300000000     0.00354781 
C        C      0.528900000000     0.038400000000     0.432900000000     0.00354781 
C        C      0.478800000000     0.086500000000     0.491200000000     0.00354781 
C        C      0.543600000000     0.255300000000     0.466700000000     0.00354781 
C        C      0.346300000000     0.209400000000     0.484400000000     0.00354781 
C        C      0.480300000000     0.324800000000     0.461900000000     0.00354781 
C        C      0.426200000000     0.646200000000     0.261800000000     0.00354781 
C        C      0.638900000000     0.057900000000     0.223600000000     0.00354781 
C        C      0.759800000000     0.044800000000     0.253200000000     0.00354781 
C        C      0.617300000000     0.149100000000     0.247700000000     0.00354781 
C        C      0.947400000000     0.290200000000     0.395000000000     0.00354781 
C        C      0.838600000000     0.208800000000     0.335400000000     0.00354781 
C        C      0.859400000000     0.117500000000     0.310200000000     0.00354781 
C        C      0.716900000000     0.222200000000     0.304200000000     0.00354781 
C        C      0.548600000000     0.910000000000     0.123700000000     0.00354781 
C        C      0.413600000000     0.847800000000     0.068300000000     0.00354781 
C        C      0.335600000000     0.806700000000     0.126400000000     0.00354781 
C        C      0.352000000000     0.698100000000     0.222300000000     0.00354781 
C        C      0.229000000000     0.697500000000     0.236600000000     0.00354781 
C        C      0.444700000000     0.768300000000     0.004000000000     0.00354781 
C        C      0.330400000000     0.905900000000     0.014500000000     0.00354781 
C        C      0.793500000000     0.474100000000     0.612600000000     0.00354781 
C        C      0.744500000000     0.412600000000     0.672000000000     0.00354781 
C        C      0.817800000000     0.357800000000     0.710700000000     0.00354781 
C        C      0.622500000000     0.411100000000     0.687400000000     0.00354781 
C        C      0.738800000000     0.519900000000     0.374800000000     0.00354781 
C        C      0.722000000000     0.464300000000     0.286800000000     0.00354781 
C        C      0.831700000000     0.455600000000     0.256300000000     0.00354781 
C        C      0.816500000000     0.399100000000     0.173400000000     0.00354781 
C        C      0.687900000000     0.350000000000     0.123000000000     0.00354781 
C        C      0.575100000000     0.361400000000     0.150800000000     0.00354781 
C        C      0.594800000000     0.416000000000     0.234900000000     0.00354781 
C        C      0.552300000000     0.949400000000     0.443700000000     0.00354781 
C        C      0.471100000000     0.961600000000     0.567100000000     0.00354781 
C        C      0.521200000000     0.913500000000     0.508800000000     0.00354781 
C        C      0.456400000000     0.744700000000     0.533300000000     0.00354781 
C        C      0.653700000000     0.790600000000     0.515600000000     0.00354781 
C        C      0.519700000000     0.675200000000     0.538100000000     0.00354781 
C        C      0.573800000000     0.353800000000     0.738200000000     0.00354781 
C        C      0.361100000000     0.942100000000     0.776400000000     0.00354781 
C        C      0.240200000000     0.955200000000     0.746800000000     0.00354781 
C        C      0.382700000000     0.850900000000     0.752300000000     0.00354781 
C        C      0.052600000000     0.709800000000     0.605000000000     0.00354781 
C        C      0.161400000000     0.791200000000     0.664600000000     0.00354781 
C        C      0.140600000000     0.882500000000     0.689800000000     0.00354781 
C        C      0.283100000000     0.777800000000     0.695800000000     0.00354781 
C        C      0.451400000000     0.090000000000     0.876300000000     0.00354781 
C        C      0.586400000000     0.152200000000     0.931700000000     0.00354781 
C        C      0.664400000000     0.193300000000     0.873600000000     0.00354781 
C        C      0.648000000000     0.301900000000     0.777700000000     0.00354781 
C        C      0.771000000000     0.302500000000     0.763400000000     0.00354781 
C        C      0.555300000000     0.231700000000     0.996000000000     0.00354781 
C        C      0.669600000000     0.094100000000     0.985500000000     0.00354781 
N        N      0.355200000000     0.293800000000     0.472400000000    -0.151827   
N        N      0.459200000000     0.181500000000     0.482300000000    -0.151827   
N        N      0.644800000000     0.706200000000     0.527600000000    -0.151827   
N        N      0.540800000000     0.818500000000     0.517700000000    -0.151827   
O        O      0.261400000000     0.459100000000     0.398500000000    -0.288119   
O        O      0.362400000000     0.471600000000     0.598900000000    -0.288119   
O        O      0.150800000000     0.442900000000     0.573700000000    -0.288119   
O        O      0.919000000000     0.365500000000     0.418900000000    -0.288119   
O        O      0.116000000000     0.544400000000     0.418700000000    -0.288119   
O        O      0.318100000000     0.705900000000     0.955700000000    -0.288119   
O        O      0.407400000000     0.751700000000     0.171300000000    -0.288119   
O        O      0.531400000000     0.990500000000     0.171400000000    -0.288119   
O        O      0.063100000000     0.274600000000     0.416300000000    -0.288119   
O        O      0.738600000000     0.540900000000     0.601500000000    -0.288119   
O        O      0.637600000000     0.528400000000     0.401100000000    -0.288119   
O        O      0.849200000000     0.557100000000     0.426300000000    -0.288119   
O        O      0.081000000000     0.634500000000     0.581100000000    -0.288119   
O        O      0.884000000000     0.455600000000     0.581300000000    -0.288119   
O        O      0.681900000000     0.294100000000     0.044300000000    -0.288119   
O        O      0.592600000000     0.248300000000     0.828700000000    -0.288119   
O        O      0.468600000000     0.009500000000     0.828600000000    -0.288119   
O        O      0.936900000000     0.725400000000     0.583700000000    -0.288119   


