data_NEHZIK_original

_audit_creation_method RASPA-1.0
_audit_creation_date 2022-1-30
_audit_author_name 'Felipe Lopes de Oliveira <felipe.lopes.oliveira@ibm.com>'

_cell_length_a    17.1193
_cell_length_b    17.1193
_cell_length_c    17.1193
_cell_angle_alpha 98.2857
_cell_angle_beta  115.337
_cell_angle_gamma 115.337
_cell_volume      3755.11

_symmetry_cell_setting          triclinic
_symmetry_space_group_name_Hall 'P 1'
_symmetry_space_group_name_H-M  'P 1'
_symmetry_Int_Tables_number     1

_symmetry_equiv_pos_as_xyz 'x,y,z'

loop_
_atom_site_label
_atom_site_type_symbol
_atom_site_fract_x
_atom_site_fract_y
_atom_site_fract_z
_atom_site_charge
Zn       Zn     0.384490000000     0.786870000000     0.848000000000     0.430077   
Zn       Zn     0.884490000000     0.036490000000     0.597620000000     0.430077   
Zn       Zn     0.115510000000     0.963510000000     0.402380000000     0.430077   
Zn       Zn     0.615510000000     0.213130000000     0.152000000000     0.430077   
Zn       Zn     0.061130000000     0.848000000000     0.963510000000     0.430077   
Zn       Zn     0.561130000000     0.597620000000     0.213130000000     0.430077   
Zn       Zn     0.438870000000     0.402380000000     0.786870000000     0.430077   
Zn       Zn     0.938870000000     0.152000000000     0.036490000000     0.430077   
H        H      0.324000000000     0.886100000000     0.960900000000     0.0781556  
H        H      0.222400000000     0.815800000000     0.692800000000     0.0781556  
H        H      0.096400000000     0.883000000000     0.644800000000     0.0781556  
H        H      0.109800000000     0.981700000000     0.795700000000     0.0781556  
H        H      0.531900000000     0.990200000000     0.875500000000     0.0781556  
H        H      0.471800000000     0.758600000000     0.714800000000     0.0781556  
H        H      0.614900000000     0.837200000000     0.668500000000     0.0781556  
H        H      0.712400000000     0.029700000000     0.733500000000     0.0781556  
H        H      0.211500000000     0.936600000000     0.894700000000     0.0781556  
H        H      0.641600000000     0.032400000000     0.820000000000     0.0781556  
H        H      0.824000000000     0.863100000000     0.437900000000     0.0781556  
H        H      0.722400000000     0.029600000000     0.406600000000     0.0781556  
H        H      0.596400000000     0.951600000000     0.213400000000     0.0781556  
H        H      0.609800000000     0.814100000000     0.128100000000     0.0781556  
H        H      0.031900000000     0.156400000000     0.541700000000     0.0781556  
H        H      0.971800000000     0.257000000000     0.713200000000     0.0781556  
H        H      0.114900000000     0.446400000000     0.777700000000     0.0781556  
H        H      0.212400000000     0.478900000000     0.682700000000     0.0781556  
H        H      0.711500000000     0.816800000000     0.274900000000     0.0781556  
H        H      0.141600000000     0.321600000000     0.609200000000     0.0781556  
H        H      0.176000000000     0.136900000000     0.562100000000     0.0781556  
H        H      0.277600000000     0.970400000000     0.593400000000     0.0781556  
H        H      0.403600000000     0.048400000000     0.786600000000     0.0781556  
H        H      0.390200000000     0.185900000000     0.871900000000     0.0781556  
H        H      0.968100000000     0.843600000000     0.458300000000     0.0781556  
H        H      0.028200000000     0.743000000000     0.286800000000     0.0781556  
H        H      0.885100000000     0.553600000000     0.222300000000     0.0781556  
H        H      0.787600000000     0.521100000000     0.317300000000     0.0781556  
H        H      0.288500000000     0.183200000000     0.725100000000     0.0781556  
H        H      0.858400000000     0.678400000000     0.390800000000     0.0781556  
H        H      0.676000000000     0.113900000000     0.039100000000     0.0781556  
H        H      0.777600000000     0.184200000000     0.307200000000     0.0781556  
H        H      0.903600000000     0.117000000000     0.355200000000     0.0781556  
H        H      0.890200000000     0.018300000000     0.204300000000     0.0781556  
H        H      0.468100000000     0.009800000000     0.124500000000     0.0781556  
H        H      0.528200000000     0.241400000000     0.285200000000     0.0781556  
H        H      0.385100000000     0.162800000000     0.331500000000     0.0781556  
H        H      0.287600000000     0.970300000000     0.266500000000     0.0781556  
H        H      0.788500000000     0.063400000000     0.105300000000     0.0781556  
H        H      0.358400000000     0.967600000000     0.180000000000     0.0781556  
H        H      0.074800000000     0.960900000000     0.136900000000     0.0781556  
H        H      0.877000000000     0.692800000000     0.970400000000     0.0781556  
H        H      0.761800000000     0.644800000000     0.048400000000     0.0781556  
H        H      0.814000000000     0.795700000000     0.185900000000     0.0781556  
H        H      0.885300000000     0.875500000000     0.843600000000     0.0781556  
H        H      0.956200000000     0.714800000000     0.743000000000     0.0781556  
H        H      0.831300000000     0.668500000000     0.553600000000     0.0781556  
H        H      0.703800000000     0.733500000000     0.521100000000     0.0781556  
H        H      0.958100000000     0.894700000000     0.183200000000     0.0781556  
H        H      0.787600000000     0.820000000000     0.678400000000     0.0781556  
H        H      0.574800000000     0.437900000000     0.113900000000     0.0781556  
H        H      0.377000000000     0.406600000000     0.184200000000     0.0781556  
H        H      0.261800000000     0.213400000000     0.117000000000     0.0781556  
H        H      0.314000000000     0.128100000000     0.018300000000     0.0781556  
H        H      0.385300000000     0.541700000000     0.009800000000     0.0781556  
H        H      0.456200000000     0.713200000000     0.241400000000     0.0781556  
H        H      0.331300000000     0.777700000000     0.162800000000     0.0781556  
H        H      0.203800000000     0.682700000000     0.970300000000     0.0781556  
H        H      0.458100000000     0.274900000000     0.063400000000     0.0781556  
H        H      0.287600000000     0.609200000000     0.967600000000     0.0781556  
H        H      0.425200000000     0.562100000000     0.886100000000     0.0781556  
H        H      0.623000000000     0.593400000000     0.815800000000     0.0781556  
H        H      0.738200000000     0.786600000000     0.883000000000     0.0781556  
H        H      0.686000000000     0.871900000000     0.981700000000     0.0781556  
H        H      0.614700000000     0.458300000000     0.990200000000     0.0781556  
H        H      0.543800000000     0.286800000000     0.758600000000     0.0781556  
H        H      0.668700000000     0.222300000000     0.837200000000     0.0781556  
H        H      0.796200000000     0.317300000000     0.029700000000     0.0781556  
H        H      0.541900000000     0.725100000000     0.936600000000     0.0781556  
H        H      0.712400000000     0.390800000000     0.032400000000     0.0781556  
H        H      0.925200000000     0.039100000000     0.863100000000     0.0781556  
H        H      0.123000000000     0.307200000000     0.029600000000     0.0781556  
H        H      0.238200000000     0.355200000000     0.951600000000     0.0781556  
H        H      0.186000000000     0.204300000000     0.814100000000     0.0781556  
H        H      0.114700000000     0.124500000000     0.156400000000     0.0781556  
H        H      0.043800000000     0.285200000000     0.257000000000     0.0781556  
H        H      0.168700000000     0.331500000000     0.446400000000     0.0781556  
H        H      0.296200000000     0.266500000000     0.478900000000     0.0781556  
H        H      0.041900000000     0.105300000000     0.816800000000     0.0781556  
H        H      0.212400000000     0.180000000000     0.321600000000     0.0781556  
C        C      0.289700000000     0.878730000000     0.898430000000     0.0608213  
C        C      0.233700000000     0.840520000000     0.751420000000     0.0608213  
C        C      0.189300000000     0.884440000000     0.768940000000     0.0608213  
C        C      0.120200000000     0.906320000000     0.708320000000     0.0608213  
C        C      0.086700000000     0.955770000000     0.732670000000     0.0608213  
C        C      0.013300000000     0.970680000000     0.661980000000     0.0608213  
C        C      0.533700000000     0.948620000000     0.835920000000     0.0608213  
C        C      0.501000000000     0.822060000000     0.747660000000     0.0608213  
C        C      0.576900000000     0.895050000000     0.748350000000     0.0608213  
C        C      0.629600000000     0.895070000000     0.701270000000     0.0608213  
C        C      0.697300000000     0.971440000000     0.701140000000     0.0608213  
C        C      0.750000000000     0.968530000000     0.651930000000     0.0608213  
C        C      0.789700000000     0.891270000000     0.410970000000     0.0608213  
C        C      0.733700000000     0.982280000000     0.393180000000     0.0608213  
C        C      0.689300000000     0.920360000000     0.304860000000     0.0608213  
C        C      0.620200000000     0.911880000000     0.213880000000     0.0608213  
C        C      0.586700000000     0.854030000000     0.130930000000     0.0608213  
C        C      0.513300000000     0.851320000000     0.042620000000     0.0608213  
C        C      0.033700000000     0.197780000000     0.585080000000     0.0608213  
C        C      0.001000000000     0.253340000000     0.678940000000     0.0608213  
C        C      0.076900000000     0.328550000000     0.681850000000     0.0608213  
C        C      0.129600000000     0.428330000000     0.734530000000     0.0608213  
C        C      0.197300000000     0.496160000000     0.725860000000     0.0608213  
C        C      0.250000000000     0.598070000000     0.781470000000     0.0608213  
C        C      0.210300000000     0.108730000000     0.589030000000     0.0608213  
C        C      0.266300000000     0.017720000000     0.606820000000     0.0608213  
C        C      0.310700000000     0.079640000000     0.695140000000     0.0608213  
C        C      0.379800000000     0.088120000000     0.786120000000     0.0608213  
C        C      0.413300000000     0.145970000000     0.869070000000     0.0608213  
C        C      0.486700000000     0.148680000000     0.957380000000     0.0608213  
C        C      0.966300000000     0.802220000000     0.414920000000     0.0608213  
C        C      0.999000000000     0.746660000000     0.321060000000     0.0608213  
C        C      0.923100000000     0.671450000000     0.318150000000     0.0608213  
C        C      0.870400000000     0.571670000000     0.265470000000     0.0608213  
C        C      0.802700000000     0.503840000000     0.274140000000     0.0608213  
C        C      0.750000000000     0.401930000000     0.218530000000     0.0608213  
C        C      0.710300000000     0.121270000000     0.101570000000     0.0608213  
C        C      0.766300000000     0.159480000000     0.248580000000     0.0608213  
C        C      0.810700000000     0.115560000000     0.231060000000     0.0608213  
C        C      0.879800000000     0.093680000000     0.291680000000     0.0608213  
C        C      0.913300000000     0.044230000000     0.267330000000     0.0608213  
C        C      0.986700000000     0.029320000000     0.338020000000     0.0608213  
C        C      0.466300000000     0.051380000000     0.164080000000     0.0608213  
C        C      0.499000000000     0.177940000000     0.252340000000     0.0608213  
C        C      0.423100000000     0.104950000000     0.251650000000     0.0608213  
C        C      0.370400000000     0.104930000000     0.298730000000     0.0608213  
C        C      0.302700000000     0.028560000000     0.298860000000     0.0608213  
C        C      0.250000000000     0.031470000000     0.348070000000     0.0608213  
C        C      0.019700000000     0.898430000000     0.108730000000     0.0608213  
C        C      0.910900000000     0.751420000000     0.017720000000     0.0608213  
C        C      0.884500000000     0.768940000000     0.079640000000     0.0608213  
C        C      0.802000000000     0.708320000000     0.088120000000     0.0608213  
C        C      0.776900000000     0.732670000000     0.145970000000     0.0608213  
C        C      0.691300000000     0.661980000000     0.148680000000     0.0608213  
C        C      0.887300000000     0.835920000000     0.802220000000     0.0608213  
C        C      0.925600000000     0.747660000000     0.746660000000     0.0608213  
C        C      0.853300000000     0.748350000000     0.671450000000     0.0608213  
C        C      0.806200000000     0.701270000000     0.571670000000     0.0608213  
C        C      0.729700000000     0.701140000000     0.503840000000     0.0608213  
C        C      0.683400000000     0.651930000000     0.401930000000     0.0608213  
C        C      0.519700000000     0.410970000000     0.121270000000     0.0608213  
C        C      0.410900000000     0.393180000000     0.159480000000     0.0608213  
C        C      0.384500000000     0.304860000000     0.115560000000     0.0608213  
C        C      0.302000000000     0.213880000000     0.093680000000     0.0608213  
C        C      0.276900000000     0.130930000000     0.044230000000     0.0608213  
C        C      0.191300000000     0.042620000000     0.029320000000     0.0608213  
C        C      0.387300000000     0.585080000000     0.051380000000     0.0608213  
C        C      0.425600000000     0.678940000000     0.177940000000     0.0608213  
C        C      0.353300000000     0.681850000000     0.104950000000     0.0608213  
C        C      0.306200000000     0.734530000000     0.104930000000     0.0608213  
C        C      0.229700000000     0.725860000000     0.028560000000     0.0608213  
C        C      0.183400000000     0.781470000000     0.031470000000     0.0608213  
C        C      0.480300000000     0.589030000000     0.878730000000     0.0608213  
C        C      0.589100000000     0.606820000000     0.840520000000     0.0608213  
C        C      0.615500000000     0.695140000000     0.884440000000     0.0608213  
C        C      0.698000000000     0.786120000000     0.906320000000     0.0608213  
C        C      0.723100000000     0.869070000000     0.955770000000     0.0608213  
C        C      0.808700000000     0.957380000000     0.970680000000     0.0608213  
C        C      0.612700000000     0.414920000000     0.948620000000     0.0608213  
C        C      0.574400000000     0.321060000000     0.822060000000     0.0608213  
C        C      0.646700000000     0.318150000000     0.895050000000     0.0608213  
C        C      0.693800000000     0.265470000000     0.895070000000     0.0608213  
C        C      0.770300000000     0.274140000000     0.971440000000     0.0608213  
C        C      0.816600000000     0.218530000000     0.968530000000     0.0608213  
C        C      0.980300000000     0.101570000000     0.891270000000     0.0608213  
C        C      0.089100000000     0.248580000000     0.982280000000     0.0608213  
C        C      0.115500000000     0.231060000000     0.920360000000     0.0608213  
C        C      0.198000000000     0.291680000000     0.911880000000     0.0608213  
C        C      0.223100000000     0.267330000000     0.854030000000     0.0608213  
C        C      0.308700000000     0.338020000000     0.851320000000     0.0608213  
C        C      0.112700000000     0.164080000000     0.197780000000     0.0608213  
C        C      0.074400000000     0.252340000000     0.253340000000     0.0608213  
C        C      0.146700000000     0.251650000000     0.328550000000     0.0608213  
C        C      0.193800000000     0.298730000000     0.428330000000     0.0608213  
C        C      0.270300000000     0.298860000000     0.496160000000     0.0608213  
C        C      0.316600000000     0.348070000000     0.598070000000     0.0608213  
N        N      0.297500000000     0.838000000000     0.832620000000    -0.193485   
N        N      0.226530000000     0.907940000000     0.863550000000    -0.193485   
N        N      0.473880000000     0.856030000000     0.802950000000    -0.193485   
N        N      0.596450000000     0.975200000000     0.805950000000    -0.193485   
N        N      0.797500000000     0.964880000000     0.459500000000    -0.193485   
N        N      0.726530000000     0.862980000000     0.318590000000    -0.193485   
N        N      0.973880000000     0.170930000000     0.617850000000    -0.193485   
N        N      0.096450000000     0.290500000000     0.621250000000    -0.193485   
N        N      0.202500000000     0.035120000000     0.540500000000    -0.193485   
N        N      0.273470000000     0.137020000000     0.681410000000    -0.193485   
N        N      0.026120000000     0.829070000000     0.382150000000    -0.193485   
N        N      0.903550000000     0.709500000000     0.378750000000    -0.193485   
N        N      0.702500000000     0.162000000000     0.167380000000    -0.193485   
N        N      0.773470000000     0.092060000000     0.136450000000    -0.193485   
N        N      0.526120000000     0.143970000000     0.197050000000    -0.193485   
N        N      0.403550000000     0.024800000000     0.194050000000    -0.193485   
N        N      0.994620000000     0.832620000000     0.035120000000    -0.193485   
N        N      0.955610000000     0.863550000000     0.137020000000    -0.193485   
N        N      0.946920000000     0.802950000000     0.829070000000    -0.193485   
N        N      0.830750000000     0.805950000000     0.709500000000    -0.193485   
N        N      0.494620000000     0.459500000000     0.162000000000    -0.193485   
N        N      0.455610000000     0.318590000000     0.092060000000    -0.193485   
N        N      0.446920000000     0.617850000000     0.143970000000    -0.193485   
N        N      0.330750000000     0.621250000000     0.024800000000    -0.193485   
N        N      0.505380000000     0.540500000000     0.838000000000    -0.193485   
N        N      0.544390000000     0.681410000000     0.907940000000    -0.193485   
N        N      0.553080000000     0.382150000000     0.856030000000    -0.193485   
N        N      0.669250000000     0.378750000000     0.975200000000    -0.193485   
N        N      0.005380000000     0.167380000000     0.964880000000    -0.193485   
N        N      0.044390000000     0.136450000000     0.862980000000    -0.193485   
N        N      0.053080000000     0.197050000000     0.170930000000    -0.193485   
N        N      0.169250000000     0.194050000000     0.290500000000    -0.193485   
O        O      0.984910000000     0.019710000000     0.693480000000    -0.291887   
O        O      0.982480000000     0.940720000000     0.578800000000    -0.291887   
O        O      0.807980000000     0.047480000000     0.653860000000    -0.291887   
O        O      0.737240000000     0.893360000000     0.612380000000    -0.291887   
O        O      0.484910000000     0.791430000000     0.965200000000    -0.291887   
O        O      0.482480000000     0.903680000000     0.041760000000    -0.291887   
O        O      0.307980000000     0.654120000000     0.760500000000    -0.291887   
O        O      0.237240000000     0.624860000000     0.843880000000    -0.291887   
O        O      0.515090000000     0.208570000000     0.034800000000    -0.291887   
O        O      0.517520000000     0.096320000000     0.958240000000    -0.291887   
O        O      0.692020000000     0.345880000000     0.239500000000    -0.291887   
O        O      0.762760000000     0.375140000000     0.156120000000    -0.291887   
O        O      0.015090000000     0.980290000000     0.306520000000    -0.291887   
O        O      0.017520000000     0.059280000000     0.421200000000    -0.291887   
O        O      0.192020000000     0.952520000000     0.346140000000    -0.291887   
O        O      0.262760000000     0.106640000000     0.387620000000    -0.291887   
O        O      0.673770000000     0.693480000000     0.208570000000    -0.291887   
O        O      0.638080000000     0.578800000000     0.096320000000    -0.291887   
O        O      0.606380000000     0.653860000000     0.345880000000    -0.291887   
O        O      0.719020000000     0.612380000000     0.375140000000    -0.291887   
O        O      0.173770000000     0.965200000000     0.980290000000    -0.291887   
O        O      0.138080000000     0.041760000000     0.059280000000    -0.291887   
O        O      0.106380000000     0.760500000000     0.952520000000    -0.291887   
O        O      0.219020000000     0.843880000000     0.106640000000    -0.291887   
O        O      0.826230000000     0.034800000000     0.019710000000    -0.291887   
O        O      0.861920000000     0.958240000000     0.940720000000    -0.291887   
O        O      0.893620000000     0.239500000000     0.047480000000    -0.291887   
O        O      0.780980000000     0.156120000000     0.893360000000    -0.291887   
O        O      0.326230000000     0.306520000000     0.791430000000    -0.291887   
O        O      0.361920000000     0.421200000000     0.903680000000    -0.291887   
O        O      0.393620000000     0.346140000000     0.654120000000    -0.291887   
O        O      0.280980000000     0.387620000000     0.624860000000    -0.291887   


