data_NHBZZN10_original

_audit_creation_method RASPA-1.0
_audit_creation_date 2022-1-30
_audit_author_name 'Felipe Lopes de Oliveira <felipe.lopes.oliveira@ibm.com>'

_cell_length_a    7.623
_cell_length_b    11.189
_cell_length_c    16.873
_cell_angle_alpha 90
_cell_angle_beta  90
_cell_angle_gamma 90
_cell_volume      1439.16

_symmetry_cell_setting          triclinic
_symmetry_space_group_name_Hall 'P 1'
_symmetry_space_group_name_H-M  'P 1'
_symmetry_Int_Tables_number     1

_symmetry_equiv_pos_as_xyz 'x,y,z'

loop_
_atom_site_label
_atom_site_type_symbol
_atom_site_fract_x
_atom_site_fract_y
_atom_site_fract_z
_atom_site_charge
Zn       Zn     0.101400000000     0.641800000000     0.038700000000     0.43951    
Zn       Zn     0.398600000000     0.358200000000     0.538700000000     0.43951    
Zn       Zn     0.898600000000     0.141800000000     0.461300000000     0.43951    
Zn       Zn     0.601400000000     0.858200000000     0.961300000000     0.43951    
H        H      0.503780000000     0.635010000000     0.314730000000     0.0526346  
H        H      0.454840000000     0.673100000000     0.167550000000     0.0526346  
H        H      0.220500000000     0.317780000000     0.140930000000     0.0526346  
H        H      0.281560000000     0.274560000000     0.287720000000     0.0526346  
H        H      0.744620000000     0.288330000000     0.255740000000     0.0526346  
H        H      0.744010000000     0.377120000000     0.122770000000     0.0526346  
H        H      0.001680000000     0.702100000000     0.223440000000     0.0526346  
H        H      0.000070000000     0.607360000000     0.355100000000     0.0526346  
H        H      0.996220000000     0.364990000000     0.814730000000     0.0526346  
H        H      0.045160000000     0.326900000000     0.667550000000     0.0526346  
H        H      0.279500000000     0.682220000000     0.640930000000     0.0526346  
H        H      0.217440000000     0.724800000000     0.788910000000     0.0526346  
H        H      0.755380000000     0.711670000000     0.755740000000     0.0526346  
H        H      0.755990000000     0.622880000000     0.622770000000     0.0526346  
H        H      0.498320000000     0.297900000000     0.723440000000     0.0526346  
H        H      0.499930000000     0.392640000000     0.855100000000     0.0526346  
H        H      0.496220000000     0.135010000000     0.185270000000     0.0526346  
H        H      0.545160000000     0.173100000000     0.332450000000     0.0526346  
H        H      0.779500000000     0.817780000000     0.359070000000     0.0526346  
H        H      0.717440000000     0.775200000000     0.211090000000     0.0526346  
H        H      0.255380000000     0.788330000000     0.244260000000     0.0526346  
H        H      0.255990000000     0.877120000000     0.377230000000     0.0526346  
H        H      0.998320000000     0.202100000000     0.276560000000     0.0526346  
H        H      0.999930000000     0.107360000000     0.144900000000     0.0526346  
H        H      0.003780000000     0.864990000000     0.685270000000     0.0526346  
H        H      0.954840000000     0.826900000000     0.832450000000     0.0526346  
H        H      0.720500000000     0.182220000000     0.859070000000     0.0526346  
H        H      0.782560000000     0.224800000000     0.711090000000     0.0526346  
H        H      0.244620000000     0.211670000000     0.744260000000     0.0526346  
H        H      0.244010000000     0.122880000000     0.877230000000     0.0526346  
H        H      0.501680000000     0.797900000000     0.776560000000     0.0526346  
H        H      0.500070000000     0.892640000000     0.644900000000     0.0526346  
C        C      0.417400000000     0.433800000000     0.395900000000     0.0293435  
C        C      0.390400000000     0.454500000000     0.307000000000     0.0293435  
C        C      0.441100000000     0.564400000000     0.275100000000     0.0293435  
C        C      0.413400000000     0.584600000000     0.195300000000     0.0293435  
C        C      0.334600000000     0.495600000000     0.149800000000     0.0293435  
C        C      0.285400000000     0.387400000000     0.180600000000     0.0293435  
C        C      0.316700000000     0.365100000000     0.261100000000     0.0293435  
C        C      0.873600000000     0.384300000000     0.395300000000     0.0293435  
C        C      0.870600000000     0.441600000000     0.314000000000     0.0293435  
C        C      0.801300000000     0.382000000000     0.248600000000     0.0293435  
C        C      0.797600000000     0.430900000000     0.174800000000     0.0293435  
C        C      0.865100000000     0.555400000000     0.164600000000     0.0293435  
C        C      0.939200000000     0.610000000000     0.229600000000     0.0293435  
C        C      0.941200000000     0.557800000000     0.302400000000     0.0293435  
C        C      0.082600000000     0.566200000000     0.895900000000     0.0293435  
C        C      0.109600000000     0.545500000000     0.807000000000     0.0293435  
C        C      0.058900000000     0.435600000000     0.775100000000     0.0293435  
C        C      0.086600000000     0.415400000000     0.695300000000     0.0293435  
C        C      0.165400000000     0.504400000000     0.649800000000     0.0293435  
C        C      0.214600000000     0.612600000000     0.680600000000     0.0293435  
C        C      0.183300000000     0.634900000000     0.761100000000     0.0293435  
C        C      0.626400000000     0.615700000000     0.895300000000     0.0293435  
C        C      0.629400000000     0.558400000000     0.814000000000     0.0293435  
C        C      0.698700000000     0.618000000000     0.748600000000     0.0293435  
C        C      0.702400000000     0.569100000000     0.674800000000     0.0293435  
C        C      0.634900000000     0.444600000000     0.664600000000     0.0293435  
C        C      0.560800000000     0.390000000000     0.729600000000     0.0293435  
C        C      0.558800000000     0.442200000000     0.802400000000     0.0293435  
C        C      0.582600000000     0.933800000000     0.104100000000     0.0293435  
C        C      0.609600000000     0.954500000000     0.193000000000     0.0293435  
C        C      0.558900000000     0.064400000000     0.224900000000     0.0293435  
C        C      0.586600000000     0.084600000000     0.304700000000     0.0293435  
C        C      0.665400000000     0.995600000000     0.350200000000     0.0293435  
C        C      0.714600000000     0.887400000000     0.319400000000     0.0293435  
C        C      0.683300000000     0.865100000000     0.238900000000     0.0293435  
C        C      0.126400000000     0.884300000000     0.104700000000     0.0293435  
C        C      0.129400000000     0.941600000000     0.186000000000     0.0293435  
C        C      0.198700000000     0.882000000000     0.251400000000     0.0293435  
C        C      0.202400000000     0.930900000000     0.325200000000     0.0293435  
C        C      0.134900000000     0.055400000000     0.335400000000     0.0293435  
C        C      0.060800000000     0.110000000000     0.270400000000     0.0293435  
C        C      0.058800000000     0.057800000000     0.197600000000     0.0293435  
C        C      0.917400000000     0.066200000000     0.604100000000     0.0293435  
C        C      0.890400000000     0.045500000000     0.693000000000     0.0293435  
C        C      0.941100000000     0.935600000000     0.724900000000     0.0293435  
C        C      0.913400000000     0.915400000000     0.804700000000     0.0293435  
C        C      0.834600000000     0.004400000000     0.850200000000     0.0293435  
C        C      0.785400000000     0.112600000000     0.819400000000     0.0293435  
C        C      0.816700000000     0.134900000000     0.738900000000     0.0293435  
C        C      0.373600000000     0.115700000000     0.604700000000     0.0293435  
C        C      0.370600000000     0.058400000000     0.686000000000     0.0293435  
C        C      0.301300000000     0.118000000000     0.751400000000     0.0293435  
C        C      0.297600000000     0.069100000000     0.825200000000     0.0293435  
C        C      0.365100000000     0.944600000000     0.835400000000     0.0293435  
C        C      0.439200000000     0.890000000000     0.770400000000     0.0293435  
C        C      0.441200000000     0.942200000000     0.697600000000     0.0293435  
N        N      0.296500000000     0.520500000000     0.064200000000    -0.121107   
N        N      0.858700000000     0.608900000000     0.086800000000    -0.121107   
N        N      0.203500000000     0.479500000000     0.564200000000    -0.121107   
N        N      0.641300000000     0.391100000000     0.586800000000    -0.121107   
N        N      0.703500000000     0.020500000000     0.435800000000    -0.121107   
N        N      0.141300000000     0.108900000000     0.413200000000    -0.121107   
N        N      0.796500000000     0.979500000000     0.935800000000    -0.121107   
N        N      0.358700000000     0.891100000000     0.913200000000    -0.121107   
O        O      0.481800000000     0.511700000000     0.438300000000    -0.257295   
O        O      0.365200000000     0.331300000000     0.423800000000    -0.257295   
O        O      0.822700000000     0.276400000000     0.397100000000    -0.257295   
O        O      0.919900000000     0.444600000000     0.454000000000    -0.257295   
O        O      0.018200000000     0.488300000000     0.938300000000    -0.257295   
O        O      0.134800000000     0.668700000000     0.923800000000    -0.257295   
O        O      0.677300000000     0.723600000000     0.897100000000    -0.257295   
O        O      0.580100000000     0.555400000000     0.954000000000    -0.257295   
O        O      0.518200000000     0.011700000000     0.061700000000    -0.257295   
O        O      0.634800000000     0.831300000000     0.076200000000    -0.257295   
O        O      0.177300000000     0.776400000000     0.102900000000    -0.257295   
O        O      0.080100000000     0.944600000000     0.046000000000    -0.257295   
O        O      0.981800000000     0.988300000000     0.561700000000    -0.257295   
O        O      0.865200000000     0.168700000000     0.576200000000    -0.257295   
O        O      0.322700000000     0.223600000000     0.602900000000    -0.257295   
O        O      0.419900000000     0.055400000000     0.546000000000    -0.257295   


