data_NIHBIQ02_original

_audit_creation_method RASPA-1.0
_audit_creation_date 2022-1-28
_audit_author_name 'Felipe Lopes de Oliveira <felipe.lopes.oliveira@ibm.com>'

_cell_length_a    10.1568
_cell_length_b    11.5008
_cell_length_c    15.283
_cell_angle_alpha 90.9464
_cell_angle_beta  90
_cell_angle_gamma 90
_cell_volume      1784.98

_symmetry_cell_setting          triclinic
_symmetry_space_group_name_Hall 'P 1'
_symmetry_space_group_name_H-M  'P 1'
_symmetry_Int_Tables_number     1

_symmetry_equiv_pos_as_xyz 'x,y,z'

loop_
_atom_site_label
_atom_site_type_symbol
_atom_site_fract_x
_atom_site_fract_y
_atom_site_fract_z
_atom_site_charge
Fe       Fe     0.931550000000     0.754150000000     0.134290000000     0.921438   
Fe       Fe     0.870950000000     0.259450000000     0.699000000000     0.921438   
Fe       Fe     0.431550000000     0.745850000000     0.365710000000     0.921438   
Fe       Fe     0.370950000000     0.240550000000     0.801000000000     0.921438   
Fe       Fe     0.068450000000     0.245850000000     0.865710000000     0.921438   
Fe       Fe     0.129050000000     0.740550000000     0.301000000000     0.921438   
Fe       Fe     0.568450000000     0.254150000000     0.634290000000     0.921438   
Fe       Fe     0.629050000000     0.759450000000     0.199000000000     0.921438   
Fe       Fe     0.000000000000     0.500000000000     0.000000000000     0.921438   
Fe       Fe     0.500000000000     0.000000000000     0.500000000000     0.921438   
Fe       Fe     0.000000000000     0.000000000000     0.000000000000     0.921438   
Fe       Fe     0.500000000000     0.500000000000     0.500000000000     0.921438   
H        H      0.784000000000     0.845200000000     0.370200000000    -0.0942909  
H        H      0.066000000000     0.480000000000     0.251000000000    -0.0942909  
H        H      0.632000000000     0.543000000000     0.069000000000    -0.0942909  
H        H      0.234000000000     0.962000000000     0.206000000000    -0.0942909  
H        H      0.123000000000     0.698000000000     0.913000000000    -0.0942909  
H        H      0.722000000000     0.998800000000     0.030800000000    -0.0942909  
H        H      0.284000000000     0.654800000000     0.129800000000    -0.0942909  
H        H      0.566000000000     0.020000000000     0.249000000000    -0.0942909  
H        H      0.132000000000     0.957000000000     0.431000000000    -0.0942909  
H        H      0.734000000000     0.538000000000     0.294000000000    -0.0942909  
H        H      0.623000000000     0.802000000000     0.587000000000    -0.0942909  
H        H      0.222000000000     0.501200000000     0.469200000000    -0.0942909  
H        H      0.216000000000     0.154800000000     0.629800000000    -0.0942909  
H        H      0.934000000000     0.520000000000     0.749000000000    -0.0942909  
H        H      0.368000000000     0.457000000000     0.931000000000    -0.0942909  
H        H      0.766000000000     0.038000000000     0.794000000000    -0.0942909  
H        H      0.877000000000     0.302000000000     0.087000000000    -0.0942909  
H        H      0.278000000000     0.001200000000     0.969200000000    -0.0942909  
H        H      0.716000000000     0.345200000000     0.870200000000    -0.0942909  
H        H      0.434000000000     0.980000000000     0.751000000000    -0.0942909  
H        H      0.868000000000     0.043000000000     0.569000000000    -0.0942909  
H        H      0.266000000000     0.462000000000     0.706000000000    -0.0942909  
H        H      0.377000000000     0.198000000000     0.413000000000    -0.0942909  
H        H      0.778000000000     0.498800000000     0.530800000000    -0.0942909  
C        C      0.851800000000     0.822850000000     0.328750000000     0.484897   
C        C      0.042700000000     0.520600000000     0.201600000000     0.484897   
C        C      0.724100000000     0.565000000000     0.071100000000     0.484897   
C        C      0.157100000000     0.939600000000     0.168000000000     0.484897   
C        C      0.080200000000     0.741700000000     0.960800000000     0.484897   
C        C      0.736400000000     0.935040000000     0.069440000000     0.484897   
C        C      0.351800000000     0.677150000000     0.171250000000     0.484897   
C        C      0.542700000000     0.979400000000     0.298400000000     0.484897   
C        C      0.224100000000     0.935000000000     0.428900000000     0.484897   
C        C      0.657100000000     0.560400000000     0.332000000000     0.484897   
C        C      0.580200000000     0.758300000000     0.539200000000     0.484897   
C        C      0.236400000000     0.564960000000     0.430560000000     0.484897   
C        C      0.148200000000     0.177150000000     0.671250000000     0.484897   
C        C      0.957300000000     0.479400000000     0.798400000000     0.484897   
C        C      0.275900000000     0.435000000000     0.928900000000     0.484897   
C        C      0.842900000000     0.060400000000     0.832000000000     0.484897   
C        C      0.919800000000     0.258300000000     0.039200000000     0.484897   
C        C      0.263600000000     0.064960000000     0.930560000000     0.484897   
C        C      0.648200000000     0.322850000000     0.828750000000     0.484897   
C        C      0.457300000000     0.020600000000     0.701600000000     0.484897   
C        C      0.775900000000     0.065000000000     0.571100000000     0.484897   
C        C      0.342900000000     0.439600000000     0.668000000000     0.484897   
C        C      0.419800000000     0.241700000000     0.460800000000     0.484897   
C        C      0.763600000000     0.435040000000     0.569440000000     0.484897   
O        O      0.818780000000     0.804290000000     0.250040000000    -0.425662   
O        O      0.962500000000     0.809410000000     0.360210000000    -0.425662   
O        O      0.024280000000     0.628210000000     0.212210000000    -0.425662   
O        O      0.030800000000     0.463590000000     0.133590000000    -0.425662   
O        O      0.755960000000     0.651420000000     0.119620000000    -0.425662   
O        O      0.797260000000     0.509440000000     0.021240000000    -0.425662   
O        O      0.097410000000     0.847250000000     0.188250000000    -0.425662   
O        O      0.132000000000     0.003560000000     0.106660000000    -0.425662   
O        O      0.019510000000     0.686390000000     0.020390000000    -0.425662   
O        O      0.088000000000     0.848300000000     0.954000000000    -0.425662   
O        O      0.855050000000     0.900060000000     0.071060000000    -0.425662   
O        O      0.642090000000     0.894040000000     0.109940000000    -0.425662   
O        O      0.318780000000     0.695710000000     0.249960000000    -0.425662   
O        O      0.462500000000     0.690590000000     0.139790000000    -0.425662   
O        O      0.524280000000     0.871790000000     0.287790000000    -0.425662   
O        O      0.530800000000     0.036410000000     0.366410000000    -0.425662   
O        O      0.255960000000     0.848580000000     0.380380000000    -0.425662   
O        O      0.297260000000     0.990560000000     0.478760000000    -0.425662   
O        O      0.597410000000     0.652750000000     0.311750000000    -0.425662   
O        O      0.632000000000     0.496440000000     0.393340000000    -0.425662   
O        O      0.519510000000     0.813610000000     0.479610000000    -0.425662   
O        O      0.588000000000     0.651700000000     0.546000000000    -0.425662   
O        O      0.355050000000     0.599940000000     0.428940000000    -0.425662   
O        O      0.142090000000     0.605960000000     0.390060000000    -0.425662   
O        O      0.181220000000     0.195710000000     0.749960000000    -0.425662   
O        O      0.037500000000     0.190590000000     0.639790000000    -0.425662   
O        O      0.975720000000     0.371790000000     0.787790000000    -0.425662   
O        O      0.969200000000     0.536410000000     0.866410000000    -0.425662   
O        O      0.244040000000     0.348580000000     0.880380000000    -0.425662   
O        O      0.202740000000     0.490560000000     0.978760000000    -0.425662   
O        O      0.902590000000     0.152750000000     0.811750000000    -0.425662   
O        O      0.868000000000     0.996440000000     0.893340000000    -0.425662   
O        O      0.980490000000     0.313610000000     0.979610000000    -0.425662   
O        O      0.912000000000     0.151700000000     0.046000000000    -0.425662   
O        O      0.144950000000     0.099940000000     0.928940000000    -0.425662   
O        O      0.357910000000     0.105960000000     0.890060000000    -0.425662   
O        O      0.681220000000     0.304290000000     0.750040000000    -0.425662   
O        O      0.537500000000     0.309410000000     0.860210000000    -0.425662   
O        O      0.475720000000     0.128210000000     0.712210000000    -0.425662   
O        O      0.469200000000     0.963590000000     0.633590000000    -0.425662   
O        O      0.744040000000     0.151420000000     0.619620000000    -0.425662   
O        O      0.702740000000     0.009440000000     0.521240000000    -0.425662   
O        O      0.402590000000     0.347250000000     0.688250000000    -0.425662   
O        O      0.368000000000     0.503560000000     0.606660000000    -0.425662   
O        O      0.480490000000     0.186390000000     0.520390000000    -0.425662   
O        O      0.412000000000     0.348300000000     0.454000000000    -0.425662   
O        O      0.644950000000     0.400060000000     0.571060000000    -0.425662   
O        O      0.857910000000     0.394040000000     0.609940000000    -0.425662   


