data_NIHBEM01_original

_audit_creation_method RASPA-1.0
_audit_creation_date 2022-1-30
_audit_author_name 'Felipe Lopes de Oliveira <felipe.lopes.oliveira@ibm.com>'

_cell_length_a    9.9023
_cell_length_b    11.339
_cell_length_c    14.8766
_cell_angle_alpha 90.9594
_cell_angle_beta  90
_cell_angle_gamma 90
_cell_volume      1670.14

_symmetry_cell_setting          triclinic
_symmetry_space_group_name_Hall 'P 1'
_symmetry_space_group_name_H-M  'P 1'
_symmetry_Int_Tables_number     1

_symmetry_equiv_pos_as_xyz 'x,y,z'

loop_
_atom_site_label
_atom_site_type_symbol
_atom_site_fract_x
_atom_site_fract_y
_atom_site_fract_z
_atom_site_charge
Fe       Fe     0.920690000000     0.754840000000     0.133630000000     0.918289   
Fe       Fe     0.889230000000     0.262000000000     0.690970000000     0.918289   
Fe       Fe     0.420690000000     0.745160000000     0.366370000000     0.918289   
Fe       Fe     0.389230000000     0.238000000000     0.809030000000     0.918289   
Fe       Fe     0.079310000000     0.245160000000     0.866370000000     0.918289   
Fe       Fe     0.110770000000     0.738000000000     0.309030000000     0.918289   
Fe       Fe     0.579310000000     0.254840000000     0.633630000000     0.918289   
Fe       Fe     0.610770000000     0.762000000000     0.190970000000     0.918289   
Fe       Fe     0.000000000000     0.500000000000     0.000000000000     0.918289   
Fe       Fe     0.500000000000     0.000000000000     0.500000000000     0.918289   
Fe       Fe     0.000000000000     0.000000000000     0.000000000000     0.918289   
Fe       Fe     0.500000000000     0.500000000000     0.500000000000     0.918289   
H        H      0.757000000000     0.865100000000     0.369100000000    -0.0886863  
H        H      0.036000000000     0.469000000000     0.267000000000    -0.0886863  
H        H      0.613000000000     0.552000000000     0.051000000000    -0.0886863  
H        H      0.214000000000     0.975000000000     0.217000000000    -0.0886863  
H        H      0.152000000000     0.695700000000     0.930700000000    -0.0886863  
H        H      0.709000000000     0.991000000000     0.011000000000    -0.0886863  
H        H      0.257000000000     0.634900000000     0.130900000000    -0.0886863  
H        H      0.536000000000     0.031000000000     0.233000000000    -0.0886863  
H        H      0.113000000000     0.948000000000     0.449000000000    -0.0886863  
H        H      0.714000000000     0.525000000000     0.283000000000    -0.0886863  
H        H      0.652000000000     0.804300000000     0.569300000000    -0.0886863  
H        H      0.209000000000     0.509000000000     0.489000000000    -0.0886863  
H        H      0.243000000000     0.134900000000     0.630900000000    -0.0886863  
H        H      0.964000000000     0.531000000000     0.733000000000    -0.0886863  
H        H      0.387000000000     0.448000000000     0.949000000000    -0.0886863  
H        H      0.786000000000     0.025000000000     0.783000000000    -0.0886863  
H        H      0.848000000000     0.304300000000     0.069300000000    -0.0886863  
H        H      0.291000000000     0.009000000000     0.989000000000    -0.0886863  
H        H      0.743000000000     0.365100000000     0.869100000000    -0.0886863  
H        H      0.464000000000     0.969000000000     0.767000000000    -0.0886863  
H        H      0.887000000000     0.052000000000     0.551000000000    -0.0886863  
H        H      0.286000000000     0.475000000000     0.717000000000    -0.0886863  
H        H      0.348000000000     0.195700000000     0.430700000000    -0.0886863  
H        H      0.791000000000     0.491000000000     0.511000000000    -0.0886863  
C        C      0.829500000000     0.831060000000     0.329760000000     0.474071   
C        C      0.021000000000     0.514600000000     0.209100000000     0.474071   
C        C      0.710600000000     0.571200000000     0.054900000000     0.474071   
C        C      0.137000000000     0.950300000000     0.181700000000     0.474071   
C        C      0.100800000000     0.743000000000     0.967400000000     0.474071   
C        C      0.720600000000     0.930920000000     0.054420000000     0.474071   
C        C      0.329500000000     0.668940000000     0.170240000000     0.474071   
C        C      0.521000000000     0.985400000000     0.290900000000     0.474071   
C        C      0.210600000000     0.928800000000     0.445100000000     0.474071   
C        C      0.637000000000     0.549700000000     0.318300000000     0.474071   
C        C      0.600800000000     0.757000000000     0.532600000000     0.474071   
C        C      0.220600000000     0.569080000000     0.445580000000     0.474071   
C        C      0.170500000000     0.168940000000     0.670240000000     0.474071   
C        C      0.979000000000     0.485400000000     0.790900000000     0.474071   
C        C      0.289400000000     0.428800000000     0.945100000000     0.474071   
C        C      0.863000000000     0.049700000000     0.818300000000     0.474071   
C        C      0.899200000000     0.257000000000     0.032600000000     0.474071   
C        C      0.279400000000     0.069080000000     0.945580000000     0.474071   
C        C      0.670500000000     0.331060000000     0.829760000000     0.474071   
C        C      0.479000000000     0.014600000000     0.709100000000     0.474071   
C        C      0.789400000000     0.071200000000     0.554900000000     0.474071   
C        C      0.363000000000     0.450300000000     0.681700000000     0.474071   
C        C      0.399200000000     0.243000000000     0.467400000000     0.474071   
C        C      0.779400000000     0.430920000000     0.554420000000     0.474071   
O        O      0.801660000000     0.810010000000     0.247410000000    -0.422265   
O        O      0.940050000000     0.812830000000     0.366930000000    -0.422265   
O        O      0.005650000000     0.624940000000     0.217140000000    -0.422265   
O        O      0.010300000000     0.456380000000     0.137980000000    -0.422265   
O        O      0.742270000000     0.651420000000     0.111920000000    -0.422265   
O        O      0.789650000000     0.514600000000     0.006300000000    -0.422265   
O        O      0.086180000000     0.849280000000     0.194080000000    -0.422265   
O        O      0.111190000000     0.017530000000     0.120030000000    -0.422265   
O        O      0.025860000000     0.686410000000     0.022610000000    -0.422265   
O        O      0.110170000000     0.850030000000     0.961430000000    -0.422265   
O        O      0.842970000000     0.897480000000     0.062560000000    -0.422265   
O        O      0.622240000000     0.894270000000     0.097070000000    -0.422265   
O        O      0.301660000000     0.689990000000     0.252590000000    -0.422265   
O        O      0.440050000000     0.687170000000     0.133070000000    -0.422265   
O        O      0.505650000000     0.875060000000     0.282860000000    -0.422265   
O        O      0.510300000000     0.043620000000     0.362020000000    -0.422265   
O        O      0.242270000000     0.848580000000     0.388080000000    -0.422265   
O        O      0.289650000000     0.985400000000     0.493700000000    -0.422265   
O        O      0.586180000000     0.650720000000     0.305920000000    -0.422265   
O        O      0.611190000000     0.482470000000     0.379970000000    -0.422265   
O        O      0.525860000000     0.813590000000     0.477390000000    -0.422265   
O        O      0.610170000000     0.649970000000     0.538570000000    -0.422265   
O        O      0.342970000000     0.602520000000     0.437440000000    -0.422265   
O        O      0.122240000000     0.605730000000     0.402930000000    -0.422265   
O        O      0.198340000000     0.189990000000     0.752590000000    -0.422265   
O        O      0.059950000000     0.187170000000     0.633070000000    -0.422265   
O        O      0.994350000000     0.375060000000     0.782860000000    -0.422265   
O        O      0.989700000000     0.543620000000     0.862020000000    -0.422265   
O        O      0.257730000000     0.348580000000     0.888080000000    -0.422265   
O        O      0.210350000000     0.485400000000     0.993700000000    -0.422265   
O        O      0.913820000000     0.150720000000     0.805920000000    -0.422265   
O        O      0.888810000000     0.982470000000     0.879970000000    -0.422265   
O        O      0.974140000000     0.313590000000     0.977390000000    -0.422265   
O        O      0.889830000000     0.149970000000     0.038570000000    -0.422265   
O        O      0.157030000000     0.102520000000     0.937440000000    -0.422265   
O        O      0.377760000000     0.105730000000     0.902930000000    -0.422265   
O        O      0.698340000000     0.310010000000     0.747410000000    -0.422265   
O        O      0.559950000000     0.312830000000     0.866930000000    -0.422265   
O        O      0.494350000000     0.124940000000     0.717140000000    -0.422265   
O        O      0.489700000000     0.956380000000     0.637980000000    -0.422265   
O        O      0.757730000000     0.151420000000     0.611920000000    -0.422265   
O        O      0.710350000000     0.014600000000     0.506300000000    -0.422265   
O        O      0.413820000000     0.349280000000     0.694080000000    -0.422265   
O        O      0.388810000000     0.517530000000     0.620030000000    -0.422265   
O        O      0.474140000000     0.186410000000     0.522610000000    -0.422265   
O        O      0.389830000000     0.350030000000     0.461430000000    -0.422265   
O        O      0.657030000000     0.397480000000     0.562560000000    -0.422265   
O        O      0.877760000000     0.394270000000     0.597070000000    -0.422265   


