data_NIHBIQ01_original

_audit_creation_method RASPA-1.0
_audit_creation_date 2022-1-28
_audit_author_name 'Felipe Lopes de Oliveira <felipe.lopes.oliveira@ibm.com>'

_cell_length_a    10.0705
_cell_length_b    11.4667
_cell_length_c    15.2124
_cell_angle_alpha 90.8908
_cell_angle_beta  90
_cell_angle_gamma 90
_cell_volume      1756.45

_symmetry_cell_setting          triclinic
_symmetry_space_group_name_Hall 'P 1'
_symmetry_space_group_name_H-M  'P 1'
_symmetry_Int_Tables_number     1

_symmetry_equiv_pos_as_xyz 'x,y,z'

loop_
_atom_site_label
_atom_site_type_symbol
_atom_site_fract_x
_atom_site_fract_y
_atom_site_fract_z
_atom_site_charge
Fe       Fe     0.928260000000     0.754210000000     0.134330000000     0.922398   
Fe       Fe     0.875820000000     0.259480000000     0.697630000000     0.922398   
Fe       Fe     0.428260000000     0.745790000000     0.365670000000     0.922398   
Fe       Fe     0.375820000000     0.240520000000     0.802370000000     0.922398   
Fe       Fe     0.071740000000     0.245790000000     0.865670000000     0.922398   
Fe       Fe     0.124180000000     0.740520000000     0.302370000000     0.922398   
Fe       Fe     0.571740000000     0.254210000000     0.634330000000     0.922398   
Fe       Fe     0.624180000000     0.759480000000     0.197630000000     0.922398   
Fe       Fe     0.000000000000     0.500000000000     0.000000000000     0.922398   
Fe       Fe     0.500000000000     0.000000000000     0.500000000000     0.922398   
Fe       Fe     0.000000000000     0.000000000000     0.000000000000     0.922398   
Fe       Fe     0.500000000000     0.500000000000     0.500000000000     0.922398   
H        H      0.774000000000     0.850200000000     0.368200000000    -0.0957601  
H        H      0.059000000000     0.476000000000     0.254000000000    -0.0957601  
H        H      0.623000000000     0.534600000000     0.077600000000    -0.0957601  
H        H      0.228000000000     0.963600000000     0.206600000000    -0.0957601  
H        H      0.129000000000     0.696400000000     0.915400000000    -0.0957601  
H        H      0.717000000000     0.994100000000     0.031100000000    -0.0957601  
H        H      0.274000000000     0.649800000000     0.131800000000    -0.0957601  
H        H      0.559000000000     0.024000000000     0.246000000000    -0.0957601  
H        H      0.123000000000     0.965400000000     0.422400000000    -0.0957601  
H        H      0.728000000000     0.536400000000     0.293400000000    -0.0957601  
H        H      0.629000000000     0.803600000000     0.584600000000    -0.0957601  
H        H      0.217000000000     0.505900000000     0.468900000000    -0.0957601  
H        H      0.226000000000     0.149800000000     0.631800000000    -0.0957601  
H        H      0.941000000000     0.524000000000     0.746000000000    -0.0957601  
H        H      0.377000000000     0.465400000000     0.922400000000    -0.0957601  
H        H      0.772000000000     0.036400000000     0.793400000000    -0.0957601  
H        H      0.871000000000     0.303600000000     0.084600000000    -0.0957601  
H        H      0.283000000000     0.005900000000     0.968900000000    -0.0957601  
H        H      0.726000000000     0.350200000000     0.868200000000    -0.0957601  
H        H      0.441000000000     0.976000000000     0.754000000000    -0.0957601  
H        H      0.877000000000     0.034600000000     0.577600000000    -0.0957601  
H        H      0.272000000000     0.463600000000     0.706600000000    -0.0957601  
H        H      0.371000000000     0.196400000000     0.415400000000    -0.0957601  
H        H      0.783000000000     0.494100000000     0.531100000000    -0.0957601  
C        C      0.846100000000     0.824730000000     0.329130000000     0.484235   
C        C      0.039100000000     0.519350000000     0.203350000000     0.484235   
C        C      0.719900000000     0.562530000000     0.070830000000     0.484235   
C        C      0.156400000000     0.940330000000     0.169230000000     0.484235   
C        C      0.081900000000     0.741680000000     0.961280000000     0.484235   
C        C      0.731800000000     0.934350000000     0.066950000000     0.484235   
C        C      0.346100000000     0.675270000000     0.170870000000     0.484235   
C        C      0.539100000000     0.980650000000     0.296650000000     0.484235   
C        C      0.219900000000     0.937470000000     0.429170000000     0.484235   
C        C      0.656400000000     0.559670000000     0.330770000000     0.484235   
C        C      0.581900000000     0.758320000000     0.538720000000     0.484235   
C        C      0.231800000000     0.565650000000     0.433050000000     0.484235   
C        C      0.153900000000     0.175270000000     0.670870000000     0.484235   
C        C      0.960900000000     0.480650000000     0.796650000000     0.484235   
C        C      0.280100000000     0.437470000000     0.929170000000     0.484235   
C        C      0.843600000000     0.059670000000     0.830770000000     0.484235   
C        C      0.918100000000     0.258320000000     0.038720000000     0.484235   
C        C      0.268200000000     0.065650000000     0.933050000000     0.484235   
C        C      0.653900000000     0.324730000000     0.829130000000     0.484235   
C        C      0.460900000000     0.019350000000     0.703350000000     0.484235   
C        C      0.780100000000     0.062530000000     0.570830000000     0.484235   
C        C      0.343600000000     0.440330000000     0.669230000000     0.484235   
C        C      0.418100000000     0.241680000000     0.461280000000     0.484235   
C        C      0.768200000000     0.434350000000     0.566950000000     0.484235   
O        O      0.814320000000     0.806220000000     0.249370000000    -0.424837   
O        O      0.957150000000     0.810560000000     0.362080000000    -0.424837   
O        O      0.018380000000     0.627820000000     0.213570000000    -0.424837   
O        O      0.030300000000     0.463150000000     0.134100000000    -0.424837   
O        O      0.752310000000     0.650130000000     0.119190000000    -0.424837   
O        O      0.795110000000     0.507890000000     0.020620000000    -0.424837   
O        O      0.095320000000     0.846940000000     0.189040000000    -0.424837   
O        O      0.131790000000     0.004620000000     0.107670000000    -0.424837   
O        O      0.018810000000     0.686280000000     0.020600000000    -0.424837   
O        O      0.090130000000     0.848380000000     0.954230000000    -0.424837   
O        O      0.852550000000     0.899930000000     0.069800000000    -0.424837   
O        O      0.636340000000     0.893640000000     0.107050000000    -0.424837   
O        O      0.314320000000     0.693780000000     0.250630000000    -0.424837   
O        O      0.457150000000     0.689440000000     0.137920000000    -0.424837   
O        O      0.518380000000     0.872180000000     0.286430000000    -0.424837   
O        O      0.530300000000     0.036850000000     0.365900000000    -0.424837   
O        O      0.252310000000     0.849870000000     0.380810000000    -0.424837   
O        O      0.295110000000     0.992110000000     0.479380000000    -0.424837   
O        O      0.595320000000     0.653060000000     0.310960000000    -0.424837   
O        O      0.631790000000     0.495380000000     0.392330000000    -0.424837   
O        O      0.518810000000     0.813720000000     0.479400000000    -0.424837   
O        O      0.590130000000     0.651620000000     0.545770000000    -0.424837   
O        O      0.352550000000     0.600070000000     0.430200000000    -0.424837   
O        O      0.136340000000     0.606360000000     0.392950000000    -0.424837   
O        O      0.185680000000     0.193780000000     0.750630000000    -0.424837   
O        O      0.042850000000     0.189440000000     0.637920000000    -0.424837   
O        O      0.981620000000     0.372180000000     0.786430000000    -0.424837   
O        O      0.969700000000     0.536850000000     0.865900000000    -0.424837   
O        O      0.247690000000     0.349870000000     0.880810000000    -0.424837   
O        O      0.204890000000     0.492110000000     0.979380000000    -0.424837   
O        O      0.904680000000     0.153060000000     0.810960000000    -0.424837   
O        O      0.868210000000     0.995380000000     0.892330000000    -0.424837   
O        O      0.981190000000     0.313720000000     0.979400000000    -0.424837   
O        O      0.909870000000     0.151620000000     0.045770000000    -0.424837   
O        O      0.147450000000     0.100070000000     0.930200000000    -0.424837   
O        O      0.363660000000     0.106360000000     0.892950000000    -0.424837   
O        O      0.685680000000     0.306220000000     0.749370000000    -0.424837   
O        O      0.542850000000     0.310560000000     0.862080000000    -0.424837   
O        O      0.481620000000     0.127820000000     0.713570000000    -0.424837   
O        O      0.469700000000     0.963150000000     0.634100000000    -0.424837   
O        O      0.747690000000     0.150130000000     0.619190000000    -0.424837   
O        O      0.704890000000     0.007890000000     0.520620000000    -0.424837   
O        O      0.404680000000     0.346940000000     0.689040000000    -0.424837   
O        O      0.368210000000     0.504620000000     0.607670000000    -0.424837   
O        O      0.481190000000     0.186280000000     0.520600000000    -0.424837   
O        O      0.409870000000     0.348380000000     0.454230000000    -0.424837   
O        O      0.647450000000     0.399930000000     0.569800000000    -0.424837   
O        O      0.863660000000     0.393640000000     0.607050000000    -0.424837   


