data_NIHBEM02_original

_audit_creation_method RASPA-1.0
_audit_creation_date 2022-1-29
_audit_author_name 'Felipe Lopes de Oliveira <felipe.lopes.oliveira@ibm.com>'

_cell_length_a    9.9922
_cell_length_b    11.4136
_cell_length_c    14.9707
_cell_angle_alpha 91.1216
_cell_angle_beta  90
_cell_angle_gamma 90
_cell_volume      1707.04

_symmetry_cell_setting          triclinic
_symmetry_space_group_name_Hall 'P 1'
_symmetry_space_group_name_H-M  'P 1'
_symmetry_Int_Tables_number     1

_symmetry_equiv_pos_as_xyz 'x,y,z'

loop_
_atom_site_label
_atom_site_type_symbol
_atom_site_fract_x
_atom_site_fract_y
_atom_site_fract_z
_atom_site_charge
Fe       Fe     0.924060000000     0.754820000000     0.133710000000     0.923587   
Fe       Fe     0.884190000000     0.261320000000     0.692740000000     0.923587   
Fe       Fe     0.424060000000     0.745180000000     0.366290000000     0.923587   
Fe       Fe     0.384190000000     0.238680000000     0.807260000000     0.923587   
Fe       Fe     0.075940000000     0.245180000000     0.866290000000     0.923587   
Fe       Fe     0.115810000000     0.738680000000     0.307260000000     0.923587   
Fe       Fe     0.575940000000     0.254820000000     0.633710000000     0.923587   
Fe       Fe     0.615810000000     0.761320000000     0.192740000000     0.923587   
Fe       Fe     0.000000000000     0.500000000000     0.000000000000     0.923587   
Fe       Fe     0.500000000000     0.000000000000     0.500000000000     0.923587   
Fe       Fe     0.000000000000     0.000000000000     0.000000000000     0.923587   
Fe       Fe     0.500000000000     0.500000000000     0.500000000000     0.923587   
H        H      0.765000000000     0.859000000000     0.369000000000    -0.100749   
H        H      0.054000000000     0.478000000000     0.259000000000    -0.100749   
H        H      0.623000000000     0.558000000000     0.054000000000    -0.100749   
H        H      0.221000000000     0.974000000000     0.218000000000    -0.100749   
H        H      0.146000000000     0.697000000000     0.926000000000    -0.100749   
H        H      0.710000000000     0.993000000000     0.020000000000    -0.100749   
H        H      0.265000000000     0.641000000000     0.131000000000    -0.100749   
H        H      0.554000000000     0.022000000000     0.241000000000    -0.100749   
H        H      0.123000000000     0.942000000000     0.446000000000    -0.100749   
H        H      0.721000000000     0.526000000000     0.282000000000    -0.100749   
H        H      0.646000000000     0.803000000000     0.574000000000    -0.100749   
H        H      0.210000000000     0.507000000000     0.480000000000    -0.100749   
H        H      0.235000000000     0.141000000000     0.631000000000    -0.100749   
H        H      0.946000000000     0.522000000000     0.741000000000    -0.100749   
H        H      0.377000000000     0.442000000000     0.946000000000    -0.100749   
H        H      0.779000000000     0.026000000000     0.782000000000    -0.100749   
H        H      0.854000000000     0.303000000000     0.074000000000    -0.100749   
H        H      0.290000000000     0.007000000000     0.980000000000    -0.100749   
H        H      0.735000000000     0.359000000000     0.869000000000    -0.100749   
H        H      0.446000000000     0.978000000000     0.759000000000    -0.100749   
H        H      0.877000000000     0.058000000000     0.554000000000    -0.100749   
H        H      0.279000000000     0.474000000000     0.718000000000    -0.100749   
H        H      0.354000000000     0.197000000000     0.426000000000    -0.100749   
H        H      0.790000000000     0.493000000000     0.520000000000    -0.100749   
C        C      0.835400000000     0.827600000000     0.329500000000     0.496871   
C        C      0.028200000000     0.517000000000     0.206400000000     0.496871   
C        C      0.714700000000     0.570900000000     0.058300000000     0.496871   
C        C      0.142500000000     0.947100000000     0.178700000000     0.496871   
C        C      0.094800000000     0.742700000000     0.965200000000     0.496871   
C        C      0.725500000000     0.933200000000     0.059500000000     0.496871   
C        C      0.335400000000     0.672400000000     0.170500000000     0.496871   
C        C      0.528200000000     0.983000000000     0.293600000000     0.496871   
C        C      0.214700000000     0.929100000000     0.441700000000     0.496871   
C        C      0.642500000000     0.552900000000     0.321300000000     0.496871   
C        C      0.594800000000     0.757300000000     0.534800000000     0.496871   
C        C      0.225500000000     0.566800000000     0.440500000000     0.496871   
C        C      0.164600000000     0.172400000000     0.670500000000     0.496871   
C        C      0.971800000000     0.483000000000     0.793600000000     0.496871   
C        C      0.285300000000     0.429100000000     0.941700000000     0.496871   
C        C      0.857500000000     0.052900000000     0.821300000000     0.496871   
C        C      0.905200000000     0.257300000000     0.034800000000     0.496871   
C        C      0.274500000000     0.066800000000     0.940500000000     0.496871   
C        C      0.664600000000     0.327600000000     0.829500000000     0.496871   
C        C      0.471800000000     0.017000000000     0.706400000000     0.496871   
C        C      0.785300000000     0.070900000000     0.558300000000     0.496871   
C        C      0.357500000000     0.447100000000     0.678700000000     0.496871   
C        C      0.405200000000     0.242700000000     0.465200000000     0.496871   
C        C      0.774500000000     0.433200000000     0.559500000000     0.496871   
O        O      0.806850000000     0.807590000000     0.248390000000    -0.428958   
O        O      0.946050000000     0.811300000000     0.365300000000    -0.428958   
O        O      0.011830000000     0.626230000000     0.215530000000    -0.428958   
O        O      0.016500000000     0.459420000000     0.136720000000    -0.428958   
O        O      0.746050000000     0.652560000000     0.112760000000    -0.428958   
O        O      0.791000000000     0.513480000000     0.010380000000    -0.428958   
O        O      0.088310000000     0.848860000000     0.193160000000    -0.428958   
O        O      0.117300000000     0.012620000000     0.116620000000    -0.428958   
O        O      0.024940000000     0.686540000000     0.021640000000    -0.428958   
O        O      0.102700000000     0.849180000000     0.959180000000    -0.428958   
O        O      0.846790000000     0.898970000000     0.065270000000    -0.428958   
O        O      0.628530000000     0.894170000000     0.100570000000    -0.428958   
O        O      0.306850000000     0.692410000000     0.251610000000    -0.428958   
O        O      0.446050000000     0.688700000000     0.134700000000    -0.428958   
O        O      0.511830000000     0.873770000000     0.284470000000    -0.428958   
O        O      0.516500000000     0.040580000000     0.363280000000    -0.428958   
O        O      0.246050000000     0.847440000000     0.387240000000    -0.428958   
O        O      0.291000000000     0.986520000000     0.489620000000    -0.428958   
O        O      0.588310000000     0.651140000000     0.306840000000    -0.428958   
O        O      0.617300000000     0.487380000000     0.383380000000    -0.428958   
O        O      0.524940000000     0.813460000000     0.478360000000    -0.428958   
O        O      0.602700000000     0.650820000000     0.540820000000    -0.428958   
O        O      0.346790000000     0.601030000000     0.434730000000    -0.428958   
O        O      0.128530000000     0.605830000000     0.399430000000    -0.428958   
O        O      0.193150000000     0.192410000000     0.751610000000    -0.428958   
O        O      0.053950000000     0.188700000000     0.634700000000    -0.428958   
O        O      0.988170000000     0.373770000000     0.784470000000    -0.428958   
O        O      0.983500000000     0.540580000000     0.863280000000    -0.428958   
O        O      0.253950000000     0.347440000000     0.887240000000    -0.428958   
O        O      0.209000000000     0.486520000000     0.989620000000    -0.428958   
O        O      0.911690000000     0.151140000000     0.806840000000    -0.428958   
O        O      0.882700000000     0.987380000000     0.883380000000    -0.428958   
O        O      0.975060000000     0.313460000000     0.978360000000    -0.428958   
O        O      0.897300000000     0.150820000000     0.040820000000    -0.428958   
O        O      0.153210000000     0.101030000000     0.934730000000    -0.428958   
O        O      0.371470000000     0.105830000000     0.899430000000    -0.428958   
O        O      0.693150000000     0.307590000000     0.748390000000    -0.428958   
O        O      0.553950000000     0.311300000000     0.865300000000    -0.428958   
O        O      0.488170000000     0.126230000000     0.715530000000    -0.428958   
O        O      0.483500000000     0.959420000000     0.636720000000    -0.428958   
O        O      0.753950000000     0.152560000000     0.612760000000    -0.428958   
O        O      0.709000000000     0.013480000000     0.510380000000    -0.428958   
O        O      0.411690000000     0.348860000000     0.693160000000    -0.428958   
O        O      0.382700000000     0.512620000000     0.616620000000    -0.428958   
O        O      0.475060000000     0.186540000000     0.521640000000    -0.428958   
O        O      0.397300000000     0.349180000000     0.459180000000    -0.428958   
O        O      0.653210000000     0.398970000000     0.565270000000    -0.428958   
O        O      0.871470000000     0.394170000000     0.600570000000    -0.428958   


