data_NIKYUC_original

_audit_creation_method RASPA-1.0
_audit_creation_date 2022-1-29
_audit_author_name 'Felipe Lopes de Oliveira <felipe.lopes.oliveira@ibm.com>'

_cell_length_a    9.9146
_cell_length_b    11.4081
_cell_length_c    14.844
_cell_angle_alpha 91.1659
_cell_angle_beta  90
_cell_angle_gamma 90
_cell_volume      1678.61

_symmetry_cell_setting          triclinic
_symmetry_space_group_name_Hall 'P 1'
_symmetry_space_group_name_H-M  'P 1'
_symmetry_Int_Tables_number     1

_symmetry_equiv_pos_as_xyz 'x,y,z'

loop_
_atom_site_label
_atom_site_type_symbol
_atom_site_fract_x
_atom_site_fract_y
_atom_site_fract_z
_atom_site_charge
Fe       Fe     0.921620000000     0.756050000000     0.133810000000     0.917703   
Fe       Fe     0.887960000000     0.260860000000     0.690970000000     0.917703   
Fe       Fe     0.421620000000     0.743950000000     0.366190000000     0.917703   
Fe       Fe     0.387960000000     0.239140000000     0.809030000000     0.917703   
Fe       Fe     0.078380000000     0.243950000000     0.866190000000     0.917703   
Fe       Fe     0.112040000000     0.739140000000     0.309030000000     0.917703   
Fe       Fe     0.578380000000     0.256050000000     0.633810000000     0.917703   
Fe       Fe     0.612040000000     0.760860000000     0.190970000000     0.917703   
Fe       Fe     0.000000000000     0.500000000000     0.000000000000     0.917703   
Fe       Fe     0.500000000000     0.000000000000     0.500000000000     0.917703   
Fe       Fe     0.000000000000     0.000000000000     0.000000000000     0.917703   
Fe       Fe     0.500000000000     0.500000000000     0.500000000000     0.917703   
H        H      0.752800000000     0.846300000000     0.370000000000    -0.0914975  
H        H      0.054000000000     0.471100000000     0.261100000000    -0.0914975  
H        H      0.615000000000     0.550800000000     0.053800000000    -0.0914975  
H        H      0.200000000000     0.976800000000     0.228800000000    -0.0914975  
H        H      0.154400000000     0.693000000000     0.929900000000    -0.0914975  
H        H      0.706900000000     0.001700000000     0.022700000000    -0.0914975  
H        H      0.252800000000     0.653700000000     0.130000000000    -0.0914975  
H        H      0.554000000000     0.028900000000     0.238900000000    -0.0914975  
H        H      0.115000000000     0.949200000000     0.446200000000    -0.0914975  
H        H      0.700000000000     0.523200000000     0.271200000000    -0.0914975  
H        H      0.654400000000     0.807000000000     0.570100000000    -0.0914975  
H        H      0.206900000000     0.498300000000     0.477300000000    -0.0914975  
H        H      0.247200000000     0.153700000000     0.630000000000    -0.0914975  
H        H      0.946000000000     0.528900000000     0.738900000000    -0.0914975  
H        H      0.385000000000     0.449200000000     0.946200000000    -0.0914975  
H        H      0.800000000000     0.023200000000     0.771200000000    -0.0914975  
H        H      0.845600000000     0.307000000000     0.070100000000    -0.0914975  
H        H      0.293100000000     0.998300000000     0.977300000000    -0.0914975  
H        H      0.747200000000     0.346300000000     0.870000000000    -0.0914975  
H        H      0.446000000000     0.971100000000     0.761100000000    -0.0914975  
H        H      0.885000000000     0.050800000000     0.553800000000    -0.0914975  
H        H      0.300000000000     0.476800000000     0.728800000000    -0.0914975  
H        H      0.345600000000     0.193000000000     0.429900000000    -0.0914975  
H        H      0.793100000000     0.501700000000     0.522700000000    -0.0914975  
C        C      0.828500000000     0.819710000000     0.333030000000     0.475138   
C        C      0.028100000000     0.516100000000     0.207300000000     0.475138   
C        C      0.710000000000     0.570500000000     0.055100000000     0.475138   
C        C      0.136000000000     0.952730000000     0.183430000000     0.475138   
C        C      0.097720000000     0.741970000000     0.966270000000     0.475138   
C        C      0.722900000000     0.938520000000     0.061120000000     0.475138   
C        C      0.328500000000     0.680290000000     0.166970000000     0.475138   
C        C      0.528100000000     0.983900000000     0.292700000000     0.475138   
C        C      0.210000000000     0.929500000000     0.444900000000     0.475138   
C        C      0.636000000000     0.547270000000     0.316570000000     0.475138   
C        C      0.597720000000     0.758030000000     0.533730000000     0.475138   
C        C      0.222900000000     0.561480000000     0.438880000000     0.475138   
C        C      0.171500000000     0.180290000000     0.666970000000     0.475138   
C        C      0.971900000000     0.483900000000     0.792700000000     0.475138   
C        C      0.290000000000     0.429500000000     0.944900000000     0.475138   
C        C      0.864000000000     0.047270000000     0.816570000000     0.475138   
C        C      0.902280000000     0.258030000000     0.033730000000     0.475138   
C        C      0.277100000000     0.061480000000     0.938880000000     0.475138   
C        C      0.671500000000     0.319710000000     0.833030000000     0.475138   
C        C      0.471900000000     0.016100000000     0.707300000000     0.475138   
C        C      0.790000000000     0.070500000000     0.555100000000     0.475138   
C        C      0.364000000000     0.452730000000     0.683430000000     0.475138   
C        C      0.402280000000     0.241970000000     0.466270000000     0.475138   
C        C      0.777100000000     0.438520000000     0.561120000000     0.475138   
O        O      0.803020000000     0.804230000000     0.249300000000    -0.421246   
O        O      0.938920000000     0.803650000000     0.370060000000    -0.421246   
O        O      0.010130000000     0.626220000000     0.215560000000    -0.421246   
O        O      0.014090000000     0.456460000000     0.137650000000    -0.421246   
O        O      0.742500000000     0.654500000000     0.108930000000    -0.421246   
O        O      0.789470000000     0.512540000000     0.007260000000    -0.421246   
O        O      0.083630000000     0.852280000000     0.196470000000    -0.421246   
O        O      0.114580000000     0.015960000000     0.118680000000    -0.421246   
O        O      0.024560000000     0.686800000000     0.022930000000    -0.421246   
O        O      0.105110000000     0.848550000000     0.958480000000    -0.421246   
O        O      0.844450000000     0.901770000000     0.065910000000    -0.421246   
O        O      0.624380000000     0.899120000000     0.101760000000    -0.421246   
O        O      0.303020000000     0.695770000000     0.250700000000    -0.421246   
O        O      0.438920000000     0.696350000000     0.129940000000    -0.421246   
O        O      0.510130000000     0.873780000000     0.284440000000    -0.421246   
O        O      0.514090000000     0.043540000000     0.362350000000    -0.421246   
O        O      0.242500000000     0.845500000000     0.391070000000    -0.421246   
O        O      0.289470000000     0.987460000000     0.492740000000    -0.421246   
O        O      0.583630000000     0.647720000000     0.303530000000    -0.421246   
O        O      0.614580000000     0.484040000000     0.381320000000    -0.421246   
O        O      0.524560000000     0.813200000000     0.477070000000    -0.421246   
O        O      0.605110000000     0.651450000000     0.541520000000    -0.421246   
O        O      0.344450000000     0.598230000000     0.434090000000    -0.421246   
O        O      0.124380000000     0.600880000000     0.398240000000    -0.421246   
O        O      0.196980000000     0.195770000000     0.750700000000    -0.421246   
O        O      0.061080000000     0.196350000000     0.629940000000    -0.421246   
O        O      0.989870000000     0.373780000000     0.784440000000    -0.421246   
O        O      0.985910000000     0.543540000000     0.862350000000    -0.421246   
O        O      0.257500000000     0.345500000000     0.891070000000    -0.421246   
O        O      0.210530000000     0.487460000000     0.992740000000    -0.421246   
O        O      0.916370000000     0.147720000000     0.803530000000    -0.421246   
O        O      0.885420000000     0.984040000000     0.881320000000    -0.421246   
O        O      0.975440000000     0.313200000000     0.977070000000    -0.421246   
O        O      0.894890000000     0.151450000000     0.041520000000    -0.421246   
O        O      0.155550000000     0.098230000000     0.934090000000    -0.421246   
O        O      0.375620000000     0.100880000000     0.898240000000    -0.421246   
O        O      0.696980000000     0.304230000000     0.749300000000    -0.421246   
O        O      0.561080000000     0.303650000000     0.870060000000    -0.421246   
O        O      0.489870000000     0.126220000000     0.715560000000    -0.421246   
O        O      0.485910000000     0.956460000000     0.637650000000    -0.421246   
O        O      0.757500000000     0.154500000000     0.608930000000    -0.421246   
O        O      0.710530000000     0.012540000000     0.507260000000    -0.421246   
O        O      0.416370000000     0.352280000000     0.696470000000    -0.421246   
O        O      0.385420000000     0.515960000000     0.618680000000    -0.421246   
O        O      0.475440000000     0.186800000000     0.522930000000    -0.421246   
O        O      0.394890000000     0.348550000000     0.458480000000    -0.421246   
O        O      0.655550000000     0.401770000000     0.565910000000    -0.421246   
O        O      0.875620000000     0.399120000000     0.601760000000    -0.421246   


