data_NIKYOW02_original

_audit_creation_method RASPA-1.0
_audit_creation_date 2022-1-30
_audit_author_name 'Felipe Lopes de Oliveira <felipe.lopes.oliveira@ibm.com>'

_cell_length_a    9.9627
_cell_length_b    11.4207
_cell_length_c    14.5907
_cell_angle_alpha 91.4249
_cell_angle_beta  90
_cell_angle_gamma 90
_cell_volume      1659.63

_symmetry_cell_setting          triclinic
_symmetry_space_group_name_Hall 'P 1'
_symmetry_space_group_name_H-M  'P 1'
_symmetry_Int_Tables_number     1

_symmetry_equiv_pos_as_xyz 'x,y,z'

loop_
_atom_site_label
_atom_site_type_symbol
_atom_site_fract_x
_atom_site_fract_y
_atom_site_fract_z
_atom_site_charge
Fe       Fe     0.920330000000     0.755460000000     0.132730000000     0.928229   
Fe       Fe     0.890940000000     0.259990000000     0.687750000000     0.928229   
Fe       Fe     0.420330000000     0.744540000000     0.367270000000     0.928229   
Fe       Fe     0.390940000000     0.240010000000     0.812250000000     0.928229   
Fe       Fe     0.079670000000     0.244540000000     0.867270000000     0.928229   
Fe       Fe     0.109060000000     0.740010000000     0.312250000000     0.928229   
Fe       Fe     0.579670000000     0.255460000000     0.632730000000     0.928229   
Fe       Fe     0.609060000000     0.759990000000     0.187750000000     0.928229   
Fe       Fe     0.000000000000     0.500000000000     0.000000000000     0.928229   
Fe       Fe     0.500000000000     0.000000000000     0.500000000000     0.928229   
Fe       Fe     0.000000000000     0.000000000000     0.000000000000     0.928229   
Fe       Fe     0.500000000000     0.500000000000     0.500000000000     0.928229   
H        H      0.756700000000     0.856200000000     0.368200000000    -0.114882   
H        H      0.033600000000     0.478000000000     0.265100000000    -0.114882   
H        H      0.621500000000     0.555500000000     0.042400000000    -0.114882   
H        H      0.181200000000     0.983400000000     0.234600000000    -0.114882   
H        H      0.159100000000     0.699700000000     0.928700000000    -0.114882   
H        H      0.703100000000     0.984700000000     0.006200000000    -0.114882   
H        H      0.256700000000     0.643800000000     0.131800000000    -0.114882   
H        H      0.533600000000     0.022000000000     0.234900000000    -0.114882   
H        H      0.121500000000     0.944500000000     0.457600000000    -0.114882   
H        H      0.681200000000     0.516600000000     0.265400000000    -0.114882   
H        H      0.659100000000     0.800300000000     0.571300000000    -0.114882   
H        H      0.203100000000     0.515300000000     0.493800000000    -0.114882   
H        H      0.243300000000     0.143800000000     0.631800000000    -0.114882   
H        H      0.966400000000     0.522000000000     0.734900000000    -0.114882   
H        H      0.378500000000     0.444500000000     0.957600000000    -0.114882   
H        H      0.818800000000     0.016600000000     0.765400000000    -0.114882   
H        H      0.840900000000     0.300300000000     0.071300000000    -0.114882   
H        H      0.296900000000     0.015300000000     0.993800000000    -0.114882   
H        H      0.743300000000     0.356200000000     0.868200000000    -0.114882   
H        H      0.466400000000     0.978000000000     0.765100000000    -0.114882   
H        H      0.878500000000     0.055500000000     0.542400000000    -0.114882   
H        H      0.318800000000     0.483400000000     0.734600000000    -0.114882   
H        H      0.340900000000     0.199700000000     0.428700000000    -0.114882   
H        H      0.796900000000     0.484700000000     0.506200000000    -0.114882   
C        C      0.826200000000     0.827030000000     0.331730000000     0.521093   
C        C      0.014500000000     0.517610000000     0.211710000000     0.521093   
C        C      0.712100000000     0.573500000000     0.048800000000     0.521093   
C        C      0.124900000000     0.954630000000     0.188430000000     0.521093   
C        C      0.104500000000     0.743670000000     0.968170000000     0.521093   
C        C      0.719800000000     0.927650000000     0.049150000000     0.521093   
C        C      0.326200000000     0.672970000000     0.168270000000     0.521093   
C        C      0.514500000000     0.982390000000     0.288290000000     0.521093   
C        C      0.212100000000     0.926500000000     0.451200000000     0.521093   
C        C      0.624900000000     0.545370000000     0.311570000000     0.521093   
C        C      0.604500000000     0.756330000000     0.531830000000     0.521093   
C        C      0.219800000000     0.572350000000     0.450850000000     0.521093   
C        C      0.173800000000     0.172970000000     0.668270000000     0.521093   
C        C      0.985500000000     0.482390000000     0.788290000000     0.521093   
C        C      0.287900000000     0.426500000000     0.951200000000     0.521093   
C        C      0.875100000000     0.045370000000     0.811570000000     0.521093   
C        C      0.895500000000     0.256330000000     0.031830000000     0.521093   
C        C      0.280200000000     0.072350000000     0.950850000000     0.521093   
C        C      0.673800000000     0.327030000000     0.831730000000     0.521093   
C        C      0.485500000000     0.017610000000     0.711710000000     0.521093   
C        C      0.787900000000     0.073500000000     0.548800000000     0.521093   
C        C      0.375100000000     0.454630000000     0.688430000000     0.521093   
C        C      0.395500000000     0.243670000000     0.468170000000     0.521093   
C        C      0.780200000000     0.427650000000     0.549150000000     0.521093   
O        O      0.799470000000     0.807150000000     0.247550000000    -0.435163   
O        O      0.935470000000     0.811370000000     0.369870000000    -0.435163   
O        O      0.005670000000     0.627590000000     0.218590000000    -0.435163   
O        O      0.000200000000     0.457840000000     0.141340000000    -0.435163   
O        O      0.742060000000     0.651810000000     0.107310000000    -0.435163   
O        O      0.791500000000     0.517890000000     0.998690000000    -0.435163   
O        O      0.081660000000     0.852190000000     0.197190000000    -0.435163   
O        O      0.100900000000     0.020820000000     0.125620000000    -0.435163   
O        O      0.027570000000     0.686980000000     0.021780000000    -0.435163   
O        O      0.112800000000     0.849910000000     0.964110000000    -0.435163   
O        O      0.842350000000     0.896730000000     0.059700000000    -0.435163   
O        O      0.621910000000     0.889040000000     0.090440000000    -0.435163   
O        O      0.299470000000     0.692850000000     0.252450000000    -0.435163   
O        O      0.435470000000     0.688630000000     0.130130000000    -0.435163   
O        O      0.505670000000     0.872410000000     0.281410000000    -0.435163   
O        O      0.500200000000     0.042160000000     0.358660000000    -0.435163   
O        O      0.242060000000     0.848190000000     0.392690000000    -0.435163   
O        O      0.291500000000     0.982110000000     0.501310000000    -0.435163   
O        O      0.581660000000     0.647810000000     0.302810000000    -0.435163   
O        O      0.600900000000     0.479180000000     0.374380000000    -0.435163   
O        O      0.527570000000     0.813020000000     0.478220000000    -0.435163   
O        O      0.612800000000     0.650090000000     0.535890000000    -0.435163   
O        O      0.342350000000     0.603270000000     0.440300000000    -0.435163   
O        O      0.121910000000     0.610960000000     0.409560000000    -0.435163   
O        O      0.200530000000     0.192850000000     0.752450000000    -0.435163   
O        O      0.064530000000     0.188630000000     0.630130000000    -0.435163   
O        O      0.994330000000     0.372410000000     0.781410000000    -0.435163   
O        O      0.999800000000     0.542160000000     0.858660000000    -0.435163   
O        O      0.257940000000     0.348190000000     0.892690000000    -0.435163   
O        O      0.208500000000     0.482110000000     0.001310000000    -0.435163   
O        O      0.918340000000     0.147810000000     0.802810000000    -0.435163   
O        O      0.899100000000     0.979180000000     0.874380000000    -0.435163   
O        O      0.972430000000     0.313020000000     0.978220000000    -0.435163   
O        O      0.887200000000     0.150090000000     0.035890000000    -0.435163   
O        O      0.157650000000     0.103270000000     0.940300000000    -0.435163   
O        O      0.378090000000     0.110960000000     0.909560000000    -0.435163   
O        O      0.700530000000     0.307150000000     0.747550000000    -0.435163   
O        O      0.564530000000     0.311370000000     0.869870000000    -0.435163   
O        O      0.494330000000     0.127590000000     0.718590000000    -0.435163   
O        O      0.499800000000     0.957840000000     0.641340000000    -0.435163   
O        O      0.757940000000     0.151810000000     0.607310000000    -0.435163   
O        O      0.708500000000     0.017890000000     0.498690000000    -0.435163   
O        O      0.418340000000     0.352190000000     0.697190000000    -0.435163   
O        O      0.399100000000     0.520820000000     0.625620000000    -0.435163   
O        O      0.472430000000     0.186980000000     0.521780000000    -0.435163   
O        O      0.387200000000     0.349910000000     0.464110000000    -0.435163   
O        O      0.657650000000     0.396730000000     0.559700000000    -0.435163   
O        O      0.878090000000     0.389040000000     0.590440000000    -0.435163   


