data_NIKYUC02_original

_audit_creation_method RASPA-1.0
_audit_creation_date 2022-1-28
_audit_author_name 'Felipe Lopes de Oliveira <felipe.lopes.oliveira@ibm.com>'

_cell_length_a    10.0853
_cell_length_b    11.52
_cell_length_c    14.9596
_cell_angle_alpha 91.4664
_cell_angle_beta  90
_cell_angle_gamma 90
_cell_volume      1737.48

_symmetry_cell_setting          triclinic
_symmetry_space_group_name_Hall 'P 1'
_symmetry_space_group_name_H-M  'P 1'
_symmetry_Int_Tables_number     1

_symmetry_equiv_pos_as_xyz 'x,y,z'

loop_
_atom_site_label
_atom_site_type_symbol
_atom_site_fract_x
_atom_site_fract_y
_atom_site_fract_z
_atom_site_charge
Fe       Fe     0.927910000000     0.755830000000     0.133610000000     0.923464   
Fe       Fe     0.878000000000     0.259600000000     0.694160000000     0.923464   
Fe       Fe     0.427910000000     0.744170000000     0.366390000000     0.923464   
Fe       Fe     0.378000000000     0.240400000000     0.805840000000     0.923464   
Fe       Fe     0.072090000000     0.244170000000     0.866390000000     0.923464   
Fe       Fe     0.122000000000     0.740400000000     0.305840000000     0.923464   
Fe       Fe     0.572090000000     0.255830000000     0.633610000000     0.923464   
Fe       Fe     0.622000000000     0.759600000000     0.194160000000     0.923464   
Fe       Fe     0.000000000000     0.500000000000     0.000000000000     0.923464   
Fe       Fe     0.500000000000     0.000000000000     0.500000000000     0.923464   
Fe       Fe     0.000000000000     0.000000000000     0.000000000000     0.923464   
Fe       Fe     0.500000000000     0.500000000000     0.500000000000     0.923464   
H        H      0.772000000000     0.845600000000     0.371600000000    -0.102872   
H        H      0.061000000000     0.473800000000     0.258800000000    -0.102872   
H        H      0.623000000000     0.559000000000     0.055000000000    -0.102872   
H        H      0.218000000000     0.970200000000     0.215200000000    -0.102872   
H        H      0.138000000000     0.698100000000     0.924100000000    -0.102872   
H        H      0.715000000000     0.995500000000     0.027500000000    -0.102872   
H        H      0.272000000000     0.654400000000     0.128400000000    -0.102872   
H        H      0.561000000000     0.026200000000     0.241200000000    -0.102872   
H        H      0.123000000000     0.941000000000     0.445000000000    -0.102872   
H        H      0.718000000000     0.529800000000     0.284800000000    -0.102872   
H        H      0.638000000000     0.801900000000     0.575900000000    -0.102872   
H        H      0.215000000000     0.504500000000     0.472500000000    -0.102872   
H        H      0.228000000000     0.154400000000     0.628400000000    -0.102872   
H        H      0.939000000000     0.526200000000     0.741200000000    -0.102872   
H        H      0.377000000000     0.441000000000     0.945000000000    -0.102872   
H        H      0.782000000000     0.029800000000     0.784800000000    -0.102872   
H        H      0.862000000000     0.301900000000     0.075900000000    -0.102872   
H        H      0.285000000000     0.004500000000     0.972500000000    -0.102872   
H        H      0.728000000000     0.345600000000     0.871600000000    -0.102872   
H        H      0.439000000000     0.973800000000     0.758800000000    -0.102872   
H        H      0.877000000000     0.059000000000     0.555000000000    -0.102872   
H        H      0.282000000000     0.470200000000     0.715200000000    -0.102872   
H        H      0.362000000000     0.198100000000     0.424100000000    -0.102872   
H        H      0.785000000000     0.495500000000     0.527500000000    -0.102872   
C        C      0.841100000000     0.819140000000     0.332340000000     0.501178   
C        C      0.036900000000     0.520450000000     0.204750000000     0.501178   
C        C      0.718500000000     0.571450000000     0.059250000000     0.501178   
C        C      0.143100000000     0.948110000000     0.178110000000     0.501178   
C        C      0.091600000000     0.742560000000     0.963960000000     0.501178   
C        C      0.731000000000     0.934440000000     0.063940000000     0.501178   
C        C      0.341100000000     0.680860000000     0.167660000000     0.501178   
C        C      0.536900000000     0.979550000000     0.295250000000     0.501178   
C        C      0.218500000000     0.928550000000     0.440750000000     0.501178   
C        C      0.643100000000     0.551890000000     0.321890000000     0.501178   
C        C      0.591600000000     0.757440000000     0.536040000000     0.501178   
C        C      0.231000000000     0.565560000000     0.436060000000     0.501178   
C        C      0.158900000000     0.180860000000     0.667660000000     0.501178   
C        C      0.963100000000     0.479550000000     0.795250000000     0.501178   
C        C      0.281500000000     0.428550000000     0.940750000000     0.501178   
C        C      0.856900000000     0.051890000000     0.821890000000     0.501178   
C        C      0.908400000000     0.257440000000     0.036040000000     0.501178   
C        C      0.269000000000     0.065560000000     0.936060000000     0.501178   
C        C      0.658900000000     0.319140000000     0.832340000000     0.501178   
C        C      0.463100000000     0.020450000000     0.704750000000     0.501178   
C        C      0.781500000000     0.071450000000     0.559250000000     0.501178   
C        C      0.356900000000     0.448110000000     0.678110000000     0.501178   
C        C      0.408400000000     0.242560000000     0.463960000000     0.501178   
C        C      0.769000000000     0.434440000000     0.563940000000     0.501178   
O        O      0.811880000000     0.802000000000     0.250480000000    -0.430019   
O        O      0.951240000000     0.805610000000     0.366260000000    -0.430019   
O        O      0.020300000000     0.629030000000     0.213290000000    -0.430019   
O        O      0.018560000000     0.460860000000     0.136600000000    -0.430019   
O        O      0.750540000000     0.654010000000     0.112400000000    -0.430019   
O        O      0.793830000000     0.512770000000     0.011280000000    -0.430019   
O        O      0.089680000000     0.850990000000     0.193550000000    -0.430019   
O        O      0.118560000000     0.011570000000     0.115940000000    -0.430019   
O        O      0.024780000000     0.687130000000     0.020950000000    -0.430019   
O        O      0.098540000000     0.848080000000     0.957830000000    -0.430019   
O        O      0.850280000000     0.900270000000     0.067330000000    -0.430019   
O        O      0.636290000000     0.894800000000     0.105220000000    -0.430019   
O        O      0.311880000000     0.698000000000     0.249520000000    -0.430019   
O        O      0.451240000000     0.694390000000     0.133740000000    -0.430019   
O        O      0.520300000000     0.870970000000     0.286710000000    -0.430019   
O        O      0.518560000000     0.039140000000     0.363400000000    -0.430019   
O        O      0.250540000000     0.845990000000     0.387600000000    -0.430019   
O        O      0.293830000000     0.987230000000     0.488720000000    -0.430019   
O        O      0.589680000000     0.649010000000     0.306450000000    -0.430019   
O        O      0.618560000000     0.488430000000     0.384060000000    -0.430019   
O        O      0.524780000000     0.812870000000     0.479050000000    -0.430019   
O        O      0.598540000000     0.651920000000     0.542170000000    -0.430019   
O        O      0.350280000000     0.599730000000     0.432670000000    -0.430019   
O        O      0.136290000000     0.605200000000     0.394780000000    -0.430019   
O        O      0.188120000000     0.198000000000     0.749520000000    -0.430019   
O        O      0.048760000000     0.194390000000     0.633740000000    -0.430019   
O        O      0.979700000000     0.370970000000     0.786710000000    -0.430019   
O        O      0.981440000000     0.539140000000     0.863400000000    -0.430019   
O        O      0.249460000000     0.345990000000     0.887600000000    -0.430019   
O        O      0.206170000000     0.487230000000     0.988720000000    -0.430019   
O        O      0.910320000000     0.149010000000     0.806450000000    -0.430019   
O        O      0.881440000000     0.988430000000     0.884060000000    -0.430019   
O        O      0.975220000000     0.312870000000     0.979050000000    -0.430019   
O        O      0.901460000000     0.151920000000     0.042170000000    -0.430019   
O        O      0.149720000000     0.099730000000     0.932670000000    -0.430019   
O        O      0.363710000000     0.105200000000     0.894780000000    -0.430019   
O        O      0.688120000000     0.302000000000     0.750480000000    -0.430019   
O        O      0.548760000000     0.305610000000     0.866260000000    -0.430019   
O        O      0.479700000000     0.129030000000     0.713290000000    -0.430019   
O        O      0.481440000000     0.960860000000     0.636600000000    -0.430019   
O        O      0.749460000000     0.154010000000     0.612400000000    -0.430019   
O        O      0.706170000000     0.012770000000     0.511280000000    -0.430019   
O        O      0.410320000000     0.350990000000     0.693550000000    -0.430019   
O        O      0.381440000000     0.511570000000     0.615940000000    -0.430019   
O        O      0.475220000000     0.187130000000     0.520950000000    -0.430019   
O        O      0.401460000000     0.348080000000     0.457830000000    -0.430019   
O        O      0.649720000000     0.400270000000     0.567330000000    -0.430019   
O        O      0.863710000000     0.394800000000     0.605220000000    -0.430019   


