data_NIKYOW01_original

_audit_creation_method RASPA-1.0
_audit_creation_date 2022-1-29
_audit_author_name 'Felipe Lopes de Oliveira <felipe.lopes.oliveira@ibm.com>'

_cell_length_a    9.8862
_cell_length_b    11.3577
_cell_length_c    14.4959
_cell_angle_alpha 91.2516
_cell_angle_beta  90
_cell_angle_gamma 90
_cell_volume      1627.28

_symmetry_cell_setting          triclinic
_symmetry_space_group_name_Hall 'P 1'
_symmetry_space_group_name_H-M  'P 1'
_symmetry_Int_Tables_number     1

_symmetry_equiv_pos_as_xyz 'x,y,z'

loop_
_atom_site_label
_atom_site_type_symbol
_atom_site_fract_x
_atom_site_fract_y
_atom_site_fract_z
_atom_site_charge
Fe       Fe     0.918590000000     0.755400000000     0.132440000000     0.921866   
Fe       Fe     0.894550000000     0.260520000000     0.686100000000     0.921866   
Fe       Fe     0.418590000000     0.744600000000     0.367560000000     0.921866   
Fe       Fe     0.394550000000     0.239480000000     0.813900000000     0.921866   
Fe       Fe     0.081410000000     0.244600000000     0.867560000000     0.921866   
Fe       Fe     0.105450000000     0.739480000000     0.313900000000     0.921866   
Fe       Fe     0.581410000000     0.255400000000     0.632440000000     0.921866   
Fe       Fe     0.605450000000     0.760520000000     0.186100000000     0.921866   
Fe       Fe     0.000000000000     0.500000000000     0.000000000000     0.921866   
Fe       Fe     0.500000000000     0.000000000000     0.500000000000     0.921866   
Fe       Fe     0.000000000000     0.000000000000     0.000000000000     0.921866   
Fe       Fe     0.500000000000     0.500000000000     0.500000000000     0.921866   
H        H      0.749500000000     0.859200000000     0.368600000000    -0.09983    
H        H      0.024500000000     0.474000000000     0.269000000000    -0.09983    
H        H      0.616600000000     0.556700000000     0.036300000000    -0.09983    
H        H      0.174900000000     0.988900000000     0.240200000000    -0.09983    
H        H      0.166800000000     0.697800000000     0.930600000000    -0.09983    
H        H      0.699800000000     0.983800000000     0.999600000000    -0.09983    
H        H      0.249500000000     0.640800000000     0.131400000000    -0.09983    
H        H      0.524500000000     0.026000000000     0.231000000000    -0.09983    
H        H      0.116600000000     0.943300000000     0.463700000000    -0.09983    
H        H      0.674900000000     0.511100000000     0.259800000000    -0.09983    
H        H      0.666800000000     0.802200000000     0.569400000000    -0.09983    
H        H      0.199800000000     0.516200000000     0.500400000000    -0.09983    
H        H      0.250500000000     0.140800000000     0.631400000000    -0.09983    
H        H      0.975500000000     0.526000000000     0.731000000000    -0.09983    
H        H      0.383400000000     0.443300000000     0.963700000000    -0.09983    
H        H      0.825100000000     0.011100000000     0.759800000000    -0.09983    
H        H      0.833200000000     0.302200000000     0.069400000000    -0.09983    
H        H      0.300200000000     0.016200000000     0.000400000000    -0.09983    
H        H      0.750500000000     0.359200000000     0.868600000000    -0.09983    
H        H      0.475500000000     0.974000000000     0.769000000000    -0.09983    
H        H      0.883400000000     0.056700000000     0.536300000000    -0.09983    
H        H      0.325100000000     0.488900000000     0.740200000000    -0.09983    
H        H      0.333200000000     0.197800000000     0.430600000000    -0.09983    
H        H      0.800200000000     0.483800000000     0.499600000000    -0.09983    
C        C      0.821500000000     0.828650000000     0.331850000000     0.492852   
C        C      0.007500000000     0.515100000000     0.213800000000     0.492852   
C        C      0.709800000000     0.574500000000     0.044600000000     0.492852   
C        C      0.120200000000     0.958200000000     0.191400000000     0.492852   
C        C      0.109500000000     0.743380000000     0.969880000000     0.492852   
C        C      0.716400000000     0.926620000000     0.045120000000     0.492852   
C        C      0.321500000000     0.671350000000     0.168150000000     0.492852   
C        C      0.507500000000     0.984900000000     0.286200000000     0.492852   
C        C      0.209800000000     0.925500000000     0.455400000000     0.492852   
C        C      0.620200000000     0.541800000000     0.308600000000     0.492852   
C        C      0.609500000000     0.756620000000     0.530120000000     0.492852   
C        C      0.216400000000     0.573380000000     0.454880000000     0.492852   
C        C      0.178500000000     0.171350000000     0.668150000000     0.492852   
C        C      0.992500000000     0.484900000000     0.786200000000     0.492852   
C        C      0.290200000000     0.425500000000     0.955400000000     0.492852   
C        C      0.879800000000     0.041800000000     0.808600000000     0.492852   
C        C      0.890500000000     0.256620000000     0.030120000000     0.492852   
C        C      0.283600000000     0.073380000000     0.954880000000     0.492852   
C        C      0.678500000000     0.328650000000     0.831850000000     0.492852   
C        C      0.492500000000     0.015100000000     0.713800000000     0.492852   
C        C      0.790200000000     0.074500000000     0.544600000000     0.492852   
C        C      0.379800000000     0.458200000000     0.691400000000     0.492852   
C        C      0.390500000000     0.243380000000     0.469880000000     0.492852   
C        C      0.783600000000     0.426620000000     0.545120000000     0.492852   
O        O      0.796090000000     0.808540000000     0.246640000000    -0.426978   
O        O      0.930520000000     0.812230000000     0.371330000000    -0.426978   
O        O      0.001070000000     0.626330000000     0.220230000000    -0.426978   
O        O      0.993750000000     0.455240000000     0.142340000000    -0.426978   
O        O      0.739500000000     0.651810000000     0.105810000000    -0.426978   
O        O      0.790960000000     0.519910000000     0.994610000000    -0.426978   
O        O      0.079990000000     0.852410000000     0.198470000000    -0.426978   
O        O      0.095350000000     0.024580000000     0.127880000000    -0.426978   
O        O      0.029300000000     0.687090000000     0.022690000000    -0.426978   
O        O      0.118820000000     0.850780000000     0.965480000000    -0.426978   
O        O      0.839390000000     0.896320000000     0.057570000000    -0.426978   
O        O      0.617040000000     0.888760000000     0.086660000000    -0.426978   
O        O      0.296090000000     0.691460000000     0.253360000000    -0.426978   
O        O      0.430520000000     0.687770000000     0.128670000000    -0.426978   
O        O      0.501070000000     0.873670000000     0.279770000000    -0.426978   
O        O      0.493750000000     0.044760000000     0.357660000000    -0.426978   
O        O      0.239500000000     0.848190000000     0.394190000000    -0.426978   
O        O      0.290960000000     0.980090000000     0.505390000000    -0.426978   
O        O      0.579990000000     0.647590000000     0.301530000000    -0.426978   
O        O      0.595350000000     0.475420000000     0.372120000000    -0.426978   
O        O      0.529300000000     0.812910000000     0.477310000000    -0.426978   
O        O      0.618820000000     0.649220000000     0.534520000000    -0.426978   
O        O      0.339390000000     0.603680000000     0.442430000000    -0.426978   
O        O      0.117040000000     0.611240000000     0.413340000000    -0.426978   
O        O      0.203910000000     0.191460000000     0.753360000000    -0.426978   
O        O      0.069480000000     0.187770000000     0.628670000000    -0.426978   
O        O      0.998930000000     0.373670000000     0.779770000000    -0.426978   
O        O      0.006250000000     0.544760000000     0.857660000000    -0.426978   
O        O      0.260500000000     0.348190000000     0.894190000000    -0.426978   
O        O      0.209040000000     0.480090000000     0.005390000000    -0.426978   
O        O      0.920010000000     0.147590000000     0.801530000000    -0.426978   
O        O      0.904650000000     0.975420000000     0.872120000000    -0.426978   
O        O      0.970700000000     0.312910000000     0.977310000000    -0.426978   
O        O      0.881180000000     0.149220000000     0.034520000000    -0.426978   
O        O      0.160610000000     0.103680000000     0.942430000000    -0.426978   
O        O      0.382960000000     0.111240000000     0.913340000000    -0.426978   
O        O      0.703910000000     0.308540000000     0.746640000000    -0.426978   
O        O      0.569480000000     0.312230000000     0.871330000000    -0.426978   
O        O      0.498930000000     0.126330000000     0.720230000000    -0.426978   
O        O      0.506250000000     0.955240000000     0.642340000000    -0.426978   
O        O      0.760500000000     0.151810000000     0.605810000000    -0.426978   
O        O      0.709040000000     0.019910000000     0.494610000000    -0.426978   
O        O      0.420010000000     0.352410000000     0.698470000000    -0.426978   
O        O      0.404650000000     0.524580000000     0.627880000000    -0.426978   
O        O      0.470700000000     0.187090000000     0.522690000000    -0.426978   
O        O      0.381180000000     0.350780000000     0.465480000000    -0.426978   
O        O      0.660610000000     0.396320000000     0.557570000000    -0.426978   
O        O      0.882960000000     0.388760000000     0.586660000000    -0.426978   


