data_NIKZAJ01_original

_audit_creation_method RASPA-1.0
_audit_creation_date 2022-1-31
_audit_author_name 'Felipe Lopes de Oliveira <felipe.lopes.oliveira@ibm.com>'

_cell_length_a    9.8058
_cell_length_b    11.3416
_cell_length_c    14.5534
_cell_angle_alpha 91.1962
_cell_angle_beta  90
_cell_angle_gamma 90
_cell_volume      1618.18

_symmetry_cell_setting          triclinic
_symmetry_space_group_name_Hall 'P 1'
_symmetry_space_group_name_H-M  'P 1'
_symmetry_Int_Tables_number     1

_symmetry_equiv_pos_as_xyz 'x,y,z'

loop_
_atom_site_label
_atom_site_type_symbol
_atom_site_fract_x
_atom_site_fract_y
_atom_site_fract_z
_atom_site_charge
Fe       Fe     0.916730000000     0.755940000000     0.131640000000     0.921212   
Fe       Fe     0.898200000000     0.260850000000     0.685760000000     0.921212   
Fe       Fe     0.416730000000     0.744060000000     0.368360000000     0.921212   
Fe       Fe     0.398200000000     0.239150000000     0.814240000000     0.921212   
Fe       Fe     0.083270000000     0.244060000000     0.868360000000     0.921212   
Fe       Fe     0.101800000000     0.739150000000     0.314240000000     0.921212   
Fe       Fe     0.583270000000     0.255940000000     0.631640000000     0.921212   
Fe       Fe     0.601800000000     0.760850000000     0.185760000000     0.921212   
Fe       Fe     0.000000000000     0.500000000000     0.000000000000     0.921212   
Fe       Fe     0.500000000000     0.000000000000     0.500000000000     0.921212   
Fe       Fe     0.000000000000     0.000000000000     0.000000000000     0.921212   
Fe       Fe     0.500000000000     0.500000000000     0.500000000000     0.921212   
H        H      0.745500000000     0.864300000000     0.366000000000    -0.0987702  
H        H      0.018500000000     0.472800000000     0.269200000000    -0.0987702  
H        H      0.613200000000     0.559000000000     0.034400000000    -0.0987702  
H        H      0.184600000000     0.983400000000     0.237000000000    -0.0987702  
H        H      0.174800000000     0.698000000000     0.935600000000    -0.0987702  
H        H      0.697200000000     0.992400000000     0.005500000000    -0.0987702  
H        H      0.245500000000     0.635700000000     0.134000000000    -0.0987702  
H        H      0.518500000000     0.027200000000     0.230800000000    -0.0987702  
H        H      0.113200000000     0.941000000000     0.465600000000    -0.0987702  
H        H      0.684600000000     0.516600000000     0.263000000000    -0.0987702  
H        H      0.674800000000     0.802000000000     0.564400000000    -0.0987702  
H        H      0.197200000000     0.507600000000     0.494500000000    -0.0987702  
H        H      0.254500000000     0.135700000000     0.634000000000    -0.0987702  
H        H      0.981500000000     0.527200000000     0.730800000000    -0.0987702  
H        H      0.386800000000     0.441000000000     0.965600000000    -0.0987702  
H        H      0.815400000000     0.016600000000     0.763000000000    -0.0987702  
H        H      0.825200000000     0.302000000000     0.064400000000    -0.0987702  
H        H      0.302800000000     0.007600000000     0.994500000000    -0.0987702  
H        H      0.754500000000     0.364300000000     0.866000000000    -0.0987702  
H        H      0.481500000000     0.972800000000     0.769200000000    -0.0987702  
H        H      0.886800000000     0.059000000000     0.534400000000    -0.0987702  
H        H      0.315400000000     0.483400000000     0.737000000000    -0.0987702  
H        H      0.325200000000     0.198000000000     0.435600000000    -0.0987702  
H        H      0.802800000000     0.492400000000     0.505500000000    -0.0987702  
C        C      0.818100000000     0.832890000000     0.329790000000     0.489565   
C        C      0.003000000000     0.514180000000     0.214080000000     0.489565   
C        C      0.707100000000     0.576790000000     0.043090000000     0.489565   
C        C      0.126900000000     0.954790000000     0.189090000000     0.489565   
C        C      0.111900000000     0.743270000000     0.971270000000     0.489565   
C        C      0.713600000000     0.931380000000     0.047880000000     0.489565   
C        C      0.318100000000     0.667110000000     0.170210000000     0.489565   
C        C      0.503000000000     0.985820000000     0.285920000000     0.489565   
C        C      0.207100000000     0.923210000000     0.456910000000     0.489565   
C        C      0.626900000000     0.545210000000     0.310910000000     0.489565   
C        C      0.611900000000     0.756730000000     0.528730000000     0.489565   
C        C      0.213600000000     0.568620000000     0.452120000000     0.489565   
C        C      0.181900000000     0.167110000000     0.670210000000     0.489565   
C        C      0.997000000000     0.485820000000     0.785920000000     0.489565   
C        C      0.292900000000     0.423210000000     0.956910000000     0.489565   
C        C      0.873100000000     0.045210000000     0.810910000000     0.489565   
C        C      0.888100000000     0.256730000000     0.028730000000     0.489565   
C        C      0.286400000000     0.068620000000     0.952120000000     0.489565   
C        C      0.681900000000     0.332890000000     0.829790000000     0.489565   
C        C      0.497000000000     0.014180000000     0.714080000000     0.489565   
C        C      0.792900000000     0.076790000000     0.543090000000     0.489565   
C        C      0.373100000000     0.454790000000     0.689090000000     0.489565   
C        C      0.388100000000     0.243270000000     0.471270000000     0.489565   
C        C      0.786400000000     0.431380000000     0.547880000000     0.489565   
O        O      0.793440000000     0.810980000000     0.244940000000    -0.4257     
O        O      0.928360000000     0.816710000000     0.368910000000    -0.4257     
O        O      0.996310000000     0.626000000000     0.220210000000    -0.4257     
O        O      0.991100000000     0.454610000000     0.142210000000    -0.4257     
O        O      0.736330000000     0.652380000000     0.105090000000    -0.4257     
O        O      0.789350000000     0.523560000000     0.992560000000    -0.4257     
O        O      0.080190000000     0.850660000000     0.197180000000    -0.4257     
O        O      0.105030000000     0.021840000000     0.125580000000    -0.4257     
O        O      0.031260000000     0.686250000000     0.023760000000    -0.4257     
O        O      0.115380000000     0.850620000000     0.962820000000    -0.4257     
O        O      0.837330000000     0.898060000000     0.057870000000    -0.4257     
O        O      0.613200000000     0.891370000000     0.088470000000    -0.4257     
O        O      0.293440000000     0.689020000000     0.255060000000    -0.4257     
O        O      0.428360000000     0.683290000000     0.131090000000    -0.4257     
O        O      0.496310000000     0.874000000000     0.279790000000    -0.4257     
O        O      0.491100000000     0.045390000000     0.357790000000    -0.4257     
O        O      0.236330000000     0.847620000000     0.394910000000    -0.4257     
O        O      0.289350000000     0.976440000000     0.507440000000    -0.4257     
O        O      0.580190000000     0.649340000000     0.302820000000    -0.4257     
O        O      0.605030000000     0.478160000000     0.374420000000    -0.4257     
O        O      0.531260000000     0.813750000000     0.476240000000    -0.4257     
O        O      0.615380000000     0.649380000000     0.537180000000    -0.4257     
O        O      0.337330000000     0.601940000000     0.442130000000    -0.4257     
O        O      0.113200000000     0.608630000000     0.411530000000    -0.4257     
O        O      0.206560000000     0.189020000000     0.755060000000    -0.4257     
O        O      0.071640000000     0.183290000000     0.631090000000    -0.4257     
O        O      0.003690000000     0.374000000000     0.779790000000    -0.4257     
O        O      0.008900000000     0.545390000000     0.857790000000    -0.4257     
O        O      0.263670000000     0.347620000000     0.894910000000    -0.4257     
O        O      0.210650000000     0.476440000000     0.007440000000    -0.4257     
O        O      0.919810000000     0.149340000000     0.802820000000    -0.4257     
O        O      0.894970000000     0.978160000000     0.874420000000    -0.4257     
O        O      0.968740000000     0.313750000000     0.976240000000    -0.4257     
O        O      0.884620000000     0.149380000000     0.037180000000    -0.4257     
O        O      0.162670000000     0.101940000000     0.942130000000    -0.4257     
O        O      0.386800000000     0.108630000000     0.911530000000    -0.4257     
O        O      0.706560000000     0.310980000000     0.744940000000    -0.4257     
O        O      0.571640000000     0.316710000000     0.868910000000    -0.4257     
O        O      0.503690000000     0.126000000000     0.720210000000    -0.4257     
O        O      0.508900000000     0.954610000000     0.642210000000    -0.4257     
O        O      0.763670000000     0.152380000000     0.605090000000    -0.4257     
O        O      0.710650000000     0.023560000000     0.492560000000    -0.4257     
O        O      0.419810000000     0.350660000000     0.697180000000    -0.4257     
O        O      0.394970000000     0.521840000000     0.625580000000    -0.4257     
O        O      0.468740000000     0.186250000000     0.523760000000    -0.4257     
O        O      0.384620000000     0.350620000000     0.462820000000    -0.4257     
O        O      0.662670000000     0.398060000000     0.557870000000    -0.4257     
O        O      0.886800000000     0.391370000000     0.588470000000    -0.4257     


