data_NIKZAJ02_original

_audit_creation_method RASPA-1.0
_audit_creation_date 2022-1-29
_audit_author_name 'Felipe Lopes de Oliveira <felipe.lopes.oliveira@ibm.com>'

_cell_length_a    9.882
_cell_length_b    11.3983
_cell_length_c    14.6144
_cell_angle_alpha 91.3223
_cell_angle_beta  90
_cell_angle_gamma 90
_cell_volume      1645.7

_symmetry_cell_setting          triclinic
_symmetry_space_group_name_Hall 'P 1'
_symmetry_space_group_name_H-M  'P 1'
_symmetry_Int_Tables_number     1

_symmetry_equiv_pos_as_xyz 'x,y,z'

loop_
_atom_site_label
_atom_site_type_symbol
_atom_site_fract_x
_atom_site_fract_y
_atom_site_fract_z
_atom_site_charge
Fe       Fe     0.918470000000     0.756050000000     0.131960000000     0.9282     
Fe       Fe     0.894650000000     0.260170000000     0.687170000000     0.9282     
Fe       Fe     0.418470000000     0.743950000000     0.368040000000     0.9282     
Fe       Fe     0.394650000000     0.239830000000     0.812830000000     0.9282     
Fe       Fe     0.081530000000     0.243950000000     0.868040000000     0.9282     
Fe       Fe     0.105350000000     0.739830000000     0.312830000000     0.9282     
Fe       Fe     0.581530000000     0.256050000000     0.631960000000     0.9282     
Fe       Fe     0.605350000000     0.760170000000     0.187170000000     0.9282     
Fe       Fe     0.000000000000     0.500000000000     0.000000000000     0.9282     
Fe       Fe     0.500000000000     0.000000000000     0.500000000000     0.9282     
Fe       Fe     0.000000000000     0.000000000000     0.000000000000     0.9282     
Fe       Fe     0.500000000000     0.500000000000     0.500000000000     0.9282     
H        H      0.752400000000     0.859700000000     0.366100000000    -0.114362   
H        H      0.025000000000     0.475800000000     0.265500000000    -0.114362   
H        H      0.618800000000     0.558700000000     0.037900000000    -0.114362   
H        H      0.188000000000     0.980300000000     0.232800000000    -0.114362   
H        H      0.168100000000     0.700000000000     0.934000000000    -0.114362   
H        H      0.700100000000     0.991500000000     0.010700000000    -0.114362   
H        H      0.252400000000     0.640300000000     0.133900000000    -0.114362   
H        H      0.525000000000     0.024200000000     0.234500000000    -0.114362   
H        H      0.118800000000     0.941300000000     0.462100000000    -0.114362   
H        H      0.688000000000     0.519700000000     0.267200000000    -0.114362   
H        H      0.668100000000     0.800000000000     0.566000000000    -0.114362   
H        H      0.200100000000     0.508500000000     0.489300000000    -0.114362   
H        H      0.247600000000     0.140300000000     0.633900000000    -0.114362   
H        H      0.975000000000     0.524200000000     0.734500000000    -0.114362   
H        H      0.381200000000     0.441300000000     0.962100000000    -0.114362   
H        H      0.812000000000     0.019700000000     0.767200000000    -0.114362   
H        H      0.831900000000     0.300000000000     0.066000000000    -0.114362   
H        H      0.299900000000     0.008500000000     0.989300000000    -0.114362   
H        H      0.747600000000     0.359700000000     0.866100000000    -0.114362   
H        H      0.475000000000     0.975800000000     0.765500000000    -0.114362   
H        H      0.881200000000     0.058700000000     0.537900000000    -0.114362   
H        H      0.312000000000     0.480300000000     0.732800000000    -0.114362   
H        H      0.331900000000     0.200000000000     0.434000000000    -0.114362   
H        H      0.799900000000     0.491500000000     0.510700000000    -0.114362   
C        C      0.822600000000     0.830110000000     0.330010000000     0.520279   
C        C      0.008100000000     0.516090000000     0.212090000000     0.520279   
C        C      0.710000000000     0.576200000000     0.045500000000     0.520279   
C        C      0.129500000000     0.952910000000     0.187210000000     0.520279   
C        C      0.108100000000     0.743750000000     0.970150000000     0.520279   
C        C      0.716800000000     0.931340000000     0.051140000000     0.520279   
C        C      0.322600000000     0.669890000000     0.169990000000     0.520279   
C        C      0.508100000000     0.983910000000     0.287910000000     0.520279   
C        C      0.210000000000     0.923800000000     0.454500000000     0.520279   
C        C      0.629500000000     0.547090000000     0.312790000000     0.520279   
C        C      0.608100000000     0.756250000000     0.529850000000     0.520279   
C        C      0.216800000000     0.568660000000     0.448860000000     0.520279   
C        C      0.177400000000     0.169890000000     0.669990000000     0.520279   
C        C      0.991900000000     0.483910000000     0.787910000000     0.520279   
C        C      0.290000000000     0.423800000000     0.954500000000     0.520279   
C        C      0.870500000000     0.047090000000     0.812790000000     0.520279   
C        C      0.891900000000     0.256250000000     0.029850000000     0.520279   
C        C      0.283200000000     0.068660000000     0.948860000000     0.520279   
C        C      0.677400000000     0.330110000000     0.830010000000     0.520279   
C        C      0.491900000000     0.016090000000     0.712090000000     0.520279   
C        C      0.790000000000     0.076200000000     0.545500000000     0.520279   
C        C      0.370500000000     0.452910000000     0.687210000000     0.520279   
C        C      0.391900000000     0.243750000000     0.470150000000     0.520279   
C        C      0.783200000000     0.431340000000     0.551140000000     0.520279   
O        O      0.796370000000     0.809030000000     0.246230000000    -0.435008   
O        O      0.932570000000     0.815090000000     0.368290000000    -0.435008   
O        O      0.001020000000     0.626740000000     0.218810000000    -0.435008   
O        O      0.994600000000     0.456930000000     0.141130000000    -0.435008   
O        O      0.739210000000     0.652480000000     0.106110000000    -0.435008   
O        O      0.790270000000     0.522230000000     0.995030000000    -0.435008   
O        O      0.081630000000     0.851190000000     0.196680000000    -0.435008   
O        O      0.107000000000     0.019260000000     0.124160000000    -0.435008   
O        O      0.030080000000     0.686620000000     0.023030000000    -0.435008   
O        O      0.111300000000     0.849970000000     0.962670000000    -0.435008   
O        O      0.840290000000     0.898620000000     0.059830000000    -0.435008   
O        O      0.618400000000     0.890980000000     0.091160000000    -0.435008   
O        O      0.296370000000     0.690970000000     0.253770000000    -0.435008   
O        O      0.432570000000     0.684910000000     0.131710000000    -0.435008   
O        O      0.501020000000     0.873260000000     0.281190000000    -0.435008   
O        O      0.494600000000     0.043070000000     0.358870000000    -0.435008   
O        O      0.239210000000     0.847520000000     0.393890000000    -0.435008   
O        O      0.290270000000     0.977770000000     0.504970000000    -0.435008   
O        O      0.581630000000     0.648810000000     0.303320000000    -0.435008   
O        O      0.607000000000     0.480740000000     0.375840000000    -0.435008   
O        O      0.530080000000     0.813380000000     0.476970000000    -0.435008   
O        O      0.611300000000     0.650030000000     0.537330000000    -0.435008   
O        O      0.340290000000     0.601380000000     0.440170000000    -0.435008   
O        O      0.118400000000     0.609020000000     0.408840000000    -0.435008   
O        O      0.203630000000     0.190970000000     0.753770000000    -0.435008   
O        O      0.067430000000     0.184910000000     0.631710000000    -0.435008   
O        O      0.998980000000     0.373260000000     0.781190000000    -0.435008   
O        O      0.005400000000     0.543070000000     0.858870000000    -0.435008   
O        O      0.260790000000     0.347520000000     0.893890000000    -0.435008   
O        O      0.209730000000     0.477770000000     0.004970000000    -0.435008   
O        O      0.918370000000     0.148810000000     0.803320000000    -0.435008   
O        O      0.893000000000     0.980740000000     0.875840000000    -0.435008   
O        O      0.969920000000     0.313380000000     0.976970000000    -0.435008   
O        O      0.888700000000     0.150030000000     0.037330000000    -0.435008   
O        O      0.159710000000     0.101380000000     0.940170000000    -0.435008   
O        O      0.381600000000     0.109020000000     0.908840000000    -0.435008   
O        O      0.703630000000     0.309030000000     0.746230000000    -0.435008   
O        O      0.567430000000     0.315090000000     0.868290000000    -0.435008   
O        O      0.498980000000     0.126740000000     0.718810000000    -0.435008   
O        O      0.505400000000     0.956930000000     0.641130000000    -0.435008   
O        O      0.760790000000     0.152480000000     0.606110000000    -0.435008   
O        O      0.709730000000     0.022230000000     0.495030000000    -0.435008   
O        O      0.418370000000     0.351190000000     0.696680000000    -0.435008   
O        O      0.393000000000     0.519260000000     0.624160000000    -0.435008   
O        O      0.469920000000     0.186620000000     0.523030000000    -0.435008   
O        O      0.388700000000     0.349970000000     0.462670000000    -0.435008   
O        O      0.659710000000     0.398620000000     0.559830000000    -0.435008   
O        O      0.881600000000     0.390980000000     0.591160000000    -0.435008   


