data_NIKZEN02_original

_audit_creation_method RASPA-1.0
_audit_creation_date 2022-1-28
_audit_author_name 'Felipe Lopes de Oliveira <felipe.lopes.oliveira@ibm.com>'

_cell_length_a    10.0205
_cell_length_b    11.4964
_cell_length_c    14.8452
_cell_angle_alpha 91.5476
_cell_angle_beta  90
_cell_angle_gamma 90
_cell_volume      1709.54

_symmetry_cell_setting          triclinic
_symmetry_space_group_name_Hall 'P 1'
_symmetry_space_group_name_H-M  'P 1'
_symmetry_Int_Tables_number     1

_symmetry_equiv_pos_as_xyz 'x,y,z'

loop_
_atom_site_label
_atom_site_type_symbol
_atom_site_fract_x
_atom_site_fract_y
_atom_site_fract_z
_atom_site_charge
Fe       Fe     0.925950000000     0.756180000000     0.133020000000     0.930148   
Fe       Fe     0.881810000000     0.259580000000     0.692730000000     0.930148   
Fe       Fe     0.425950000000     0.743820000000     0.366980000000     0.930148   
Fe       Fe     0.381810000000     0.240420000000     0.807270000000     0.930148   
Fe       Fe     0.074050000000     0.243820000000     0.866980000000     0.930148   
Fe       Fe     0.118190000000     0.740420000000     0.307270000000     0.930148   
Fe       Fe     0.574050000000     0.256180000000     0.633020000000     0.930148   
Fe       Fe     0.618190000000     0.759580000000     0.192730000000     0.930148   
Fe       Fe     0.000000000000     0.500000000000     0.000000000000     0.930148   
Fe       Fe     0.500000000000     0.000000000000     0.500000000000     0.930148   
Fe       Fe     0.000000000000     0.000000000000     0.000000000000     0.930148   
Fe       Fe     0.500000000000     0.500000000000     0.500000000000     0.930148   
H        H      0.768700000000     0.849600000000     0.369000000000    -0.115734   
H        H      0.053400000000     0.481000000000     0.258300000000    -0.115734   
H        H      0.626100000000     0.555400000000     0.049100000000    -0.115734   
H        H      0.200800000000     0.976900000000     0.223600000000    -0.115734   
H        H      0.150000000000     0.698600000000     0.926400000000    -0.115734   
H        H      0.710300000000     0.994700000000     0.023000000000    -0.115734   
H        H      0.268700000000     0.650400000000     0.131000000000    -0.115734   
H        H      0.553400000000     0.019000000000     0.241700000000    -0.115734   
H        H      0.126100000000     0.944600000000     0.450900000000    -0.115734   
H        H      0.700800000000     0.523100000000     0.276400000000    -0.115734   
H        H      0.650000000000     0.801400000000     0.573600000000    -0.115734   
H        H      0.210300000000     0.505300000000     0.477000000000    -0.115734   
H        H      0.231300000000     0.150400000000     0.631000000000    -0.115734   
H        H      0.946600000000     0.519000000000     0.741700000000    -0.115734   
H        H      0.373900000000     0.444600000000     0.950900000000    -0.115734   
H        H      0.799200000000     0.023100000000     0.776400000000    -0.115734   
H        H      0.850000000000     0.301400000000     0.073600000000    -0.115734   
H        H      0.289700000000     0.005300000000     0.977000000000    -0.115734   
H        H      0.731300000000     0.349600000000     0.869000000000    -0.115734   
H        H      0.446600000000     0.981000000000     0.758300000000    -0.115734   
H        H      0.873900000000     0.055400000000     0.549100000000    -0.115734   
H        H      0.299200000000     0.476900000000     0.723600000000    -0.115734   
H        H      0.350000000000     0.198600000000     0.426400000000    -0.115734   
H        H      0.789700000000     0.494700000000     0.523000000000    -0.115734   
C        C      0.836900000000     0.821860000000     0.331860000000     0.522505   
C        C      0.027900000000     0.519620000000     0.206820000000     0.522505   
C        C      0.716300000000     0.573570000000     0.053770000000     0.522505   
C        C      0.139000000000     0.950240000000     0.181140000000     0.522505   
C        C      0.097400000000     0.742620000000     0.966020000000     0.522505   
C        C      0.727800000000     0.933550000000     0.061050000000     0.522505   
C        C      0.336900000000     0.678140000000     0.168140000000     0.522505   
C        C      0.527900000000     0.980380000000     0.293180000000     0.522505   
C        C      0.216300000000     0.926430000000     0.446230000000     0.522505   
C        C      0.639000000000     0.549760000000     0.318860000000     0.522505   
C        C      0.597400000000     0.757380000000     0.533980000000     0.522505   
C        C      0.227800000000     0.566450000000     0.438950000000     0.522505   
C        C      0.163100000000     0.178140000000     0.668140000000     0.522505   
C        C      0.972100000000     0.480380000000     0.793180000000     0.522505   
C        C      0.283700000000     0.426430000000     0.946230000000     0.522505   
C        C      0.861000000000     0.049760000000     0.818860000000     0.522505   
C        C      0.902600000000     0.257380000000     0.033980000000     0.522505   
C        C      0.272200000000     0.066450000000     0.938950000000     0.522505   
C        C      0.663100000000     0.321860000000     0.831860000000     0.522505   
C        C      0.472100000000     0.019620000000     0.706820000000     0.522505   
C        C      0.783700000000     0.073570000000     0.553770000000     0.522505   
C        C      0.361000000000     0.450240000000     0.681140000000     0.522505   
C        C      0.402600000000     0.242620000000     0.466020000000     0.522505   
C        C      0.772200000000     0.433550000000     0.561050000000     0.522505   
O        O      0.808550000000     0.803560000000     0.249340000000    -0.435923   
O        O      0.946730000000     0.806190000000     0.367340000000    -0.435923   
O        O      0.016090000000     0.628940000000     0.214200000000    -0.435923   
O        O      0.009070000000     0.459330000000     0.138510000000    -0.435923   
O        O      0.747660000000     0.654370000000     0.109850000000    -0.435923   
O        O      0.792810000000     0.516610000000     0.004970000000    -0.435923   
O        O      0.087920000000     0.851620000000     0.194010000000    -0.435923   
O        O      0.115510000000     0.014230000000     0.118370000000    -0.435923   
O        O      0.026520000000     0.686730000000     0.021590000000    -0.435923   
O        O      0.103250000000     0.848270000000     0.959540000000    -0.435923   
O        O      0.848070000000     0.900000000000     0.065500000000    -0.435923   
O        O      0.631250000000     0.893860000000     0.101830000000    -0.435923   
O        O      0.308550000000     0.696440000000     0.250660000000    -0.435923   
O        O      0.446730000000     0.693810000000     0.132660000000    -0.435923   
O        O      0.516090000000     0.871060000000     0.285800000000    -0.435923   
O        O      0.509070000000     0.040670000000     0.361490000000    -0.435923   
O        O      0.247660000000     0.845630000000     0.390150000000    -0.435923   
O        O      0.292810000000     0.983390000000     0.495030000000    -0.435923   
O        O      0.587920000000     0.648380000000     0.305990000000    -0.435923   
O        O      0.615510000000     0.485770000000     0.381630000000    -0.435923   
O        O      0.526520000000     0.813270000000     0.478410000000    -0.435923   
O        O      0.603250000000     0.651730000000     0.540460000000    -0.435923   
O        O      0.348070000000     0.600000000000     0.434500000000    -0.435923   
O        O      0.131250000000     0.606140000000     0.398170000000    -0.435923   
O        O      0.191450000000     0.196440000000     0.750660000000    -0.435923   
O        O      0.053270000000     0.193810000000     0.632660000000    -0.435923   
O        O      0.983910000000     0.371060000000     0.785800000000    -0.435923   
O        O      0.990930000000     0.540670000000     0.861490000000    -0.435923   
O        O      0.252340000000     0.345630000000     0.890150000000    -0.435923   
O        O      0.207190000000     0.483390000000     0.995030000000    -0.435923   
O        O      0.912080000000     0.148380000000     0.805990000000    -0.435923   
O        O      0.884490000000     0.985770000000     0.881630000000    -0.435923   
O        O      0.973480000000     0.313270000000     0.978410000000    -0.435923   
O        O      0.896750000000     0.151730000000     0.040460000000    -0.435923   
O        O      0.151930000000     0.100000000000     0.934500000000    -0.435923   
O        O      0.368750000000     0.106140000000     0.898170000000    -0.435923   
O        O      0.691450000000     0.303560000000     0.749340000000    -0.435923   
O        O      0.553270000000     0.306190000000     0.867340000000    -0.435923   
O        O      0.483910000000     0.128940000000     0.714200000000    -0.435923   
O        O      0.490930000000     0.959330000000     0.638510000000    -0.435923   
O        O      0.752340000000     0.154370000000     0.609850000000    -0.435923   
O        O      0.707190000000     0.016610000000     0.504970000000    -0.435923   
O        O      0.412080000000     0.351620000000     0.694010000000    -0.435923   
O        O      0.384490000000     0.514230000000     0.618370000000    -0.435923   
O        O      0.473480000000     0.186730000000     0.521590000000    -0.435923   
O        O      0.396750000000     0.348270000000     0.459540000000    -0.435923   
O        O      0.651930000000     0.400000000000     0.565500000000    -0.435923   
O        O      0.868750000000     0.393860000000     0.601830000000    -0.435923   


