data_NIKZEN01_original

_audit_creation_method RASPA-1.0
_audit_creation_date 2022-1-29
_audit_author_name 'Felipe Lopes de Oliveira <felipe.lopes.oliveira@ibm.com>'

_cell_length_a    9.9369
_cell_length_b    11.4443
_cell_length_c    14.8142
_cell_angle_alpha 91.4747
_cell_angle_beta  90
_cell_angle_gamma 90
_cell_volume      1684.13

_symmetry_cell_setting          triclinic
_symmetry_space_group_name_Hall 'P 1'
_symmetry_space_group_name_H-M  'P 1'
_symmetry_Int_Tables_number     1

_symmetry_equiv_pos_as_xyz 'x,y,z'

loop_
_atom_site_label
_atom_site_type_symbol
_atom_site_fract_x
_atom_site_fract_y
_atom_site_fract_z
_atom_site_charge
Fe       Fe     0.924450000000     0.756370000000     0.132940000000     0.922332   
Fe       Fe     0.615300000000     0.759960000000     0.192010000000     0.922332   
Fe       Fe     0.424450000000     0.743630000000     0.367060000000     0.922332   
Fe       Fe     0.115300000000     0.740040000000     0.307990000000     0.922332   
Fe       Fe     0.075550000000     0.243630000000     0.867060000000     0.922332   
Fe       Fe     0.384700000000     0.240040000000     0.807990000000     0.922332   
Fe       Fe     0.575550000000     0.256370000000     0.632940000000     0.922332   
Fe       Fe     0.884700000000     0.259960000000     0.692010000000     0.922332   
Fe       Fe     0.000000000000     0.500000000000     0.000000000000     0.922332   
Fe       Fe     0.500000000000     0.000000000000     0.500000000000     0.922332   
Fe       Fe     0.000000000000     0.000000000000     0.000000000000     0.922332   
Fe       Fe     0.500000000000     0.500000000000     0.500000000000     0.922332   
H        H      0.763300000000     0.854200000000     0.369400000000    -0.0995974  
H        H      0.047100000000     0.477200000000     0.260800000000    -0.0995974  
H        H      0.620300000000     0.556300000000     0.046200000000    -0.0995974  
H        H      0.202700000000     0.978800000000     0.225400000000    -0.0995974  
H        H      0.158600000000     0.696500000000     0.927700000000    -0.0995974  
H        H      0.706600000000     0.996600000000     0.019500000000    -0.0995974  
H        H      0.263300000000     0.645800000000     0.130600000000    -0.0995974  
H        H      0.547100000000     0.022800000000     0.239200000000    -0.0995974  
H        H      0.120300000000     0.943700000000     0.453800000000    -0.0995974  
H        H      0.702700000000     0.521200000000     0.274600000000    -0.0995974  
H        H      0.658600000000     0.803500000000     0.572300000000    -0.0995974  
H        H      0.206600000000     0.503400000000     0.480500000000    -0.0995974  
H        H      0.236700000000     0.145800000000     0.630600000000    -0.0995974  
H        H      0.952900000000     0.522800000000     0.739200000000    -0.0995974  
H        H      0.379700000000     0.443700000000     0.953800000000    -0.0995974  
H        H      0.797300000000     0.021200000000     0.774600000000    -0.0995974  
H        H      0.841400000000     0.303500000000     0.072300000000    -0.0995974  
H        H      0.293400000000     0.003400000000     0.980500000000    -0.0995974  
H        H      0.736700000000     0.354200000000     0.869400000000    -0.0995974  
H        H      0.452900000000     0.977200000000     0.760800000000    -0.0995974  
H        H      0.879700000000     0.056300000000     0.546200000000    -0.0995974  
H        H      0.297300000000     0.478800000000     0.725400000000    -0.0995974  
H        H      0.341400000000     0.196500000000     0.427700000000    -0.0995974  
H        H      0.793400000000     0.496600000000     0.519500000000    -0.0995974  
C        C      0.833600000000     0.824200000000     0.332000000000     0.491069   
C        C      0.023200000000     0.517290000000     0.207790000000     0.491069   
C        C      0.713300000000     0.574550000000     0.051450000000     0.491069   
C        C      0.139400000000     0.951260000000     0.181760000000     0.491069   
C        C      0.102200000000     0.742080000000     0.966680000000     0.491069   
C        C      0.724100000000     0.934600000000     0.059300000000     0.491069   
C        C      0.333600000000     0.675800000000     0.168000000000     0.491069   
C        C      0.523200000000     0.982710000000     0.292210000000     0.491069   
C        C      0.213300000000     0.925450000000     0.448550000000     0.491069   
C        C      0.639400000000     0.548740000000     0.318240000000     0.491069   
C        C      0.602200000000     0.757920000000     0.533320000000     0.491069   
C        C      0.224100000000     0.565400000000     0.440700000000     0.491069   
C        C      0.166400000000     0.175800000000     0.668000000000     0.491069   
C        C      0.976800000000     0.482710000000     0.792210000000     0.491069   
C        C      0.286700000000     0.425450000000     0.948550000000     0.491069   
C        C      0.860600000000     0.048740000000     0.818240000000     0.491069   
C        C      0.897800000000     0.257920000000     0.033320000000     0.491069   
C        C      0.275900000000     0.065400000000     0.940700000000     0.491069   
C        C      0.666400000000     0.324200000000     0.832000000000     0.491069   
C        C      0.476800000000     0.017290000000     0.707790000000     0.491069   
C        C      0.786700000000     0.074550000000     0.551450000000     0.491069   
C        C      0.360600000000     0.451260000000     0.681760000000     0.491069   
C        C      0.397800000000     0.242080000000     0.466680000000     0.491069   
C        C      0.775900000000     0.434600000000     0.559300000000     0.491069   
O        O      0.805880000000     0.805930000000     0.248970000000    -0.426319   
O        O      0.443350000000     0.693390000000     0.131270000000    -0.426319   
O        O      0.012390000000     0.627850000000     0.214820000000    -0.426319   
O        O      0.005500000000     0.457430000000     0.138870000000    -0.426319   
O        O      0.745350000000     0.654420000000     0.108710000000    -0.426319   
O        O      0.791260000000     0.518170000000     0.001850000000    -0.426319   
O        O      0.087220000000     0.851400000000     0.194700000000    -0.426319   
O        O      0.116010000000     0.015520000000     0.118420000000    -0.426319   
O        O      0.027940000000     0.686730000000     0.022440000000    -0.426319   
O        O      0.106590000000     0.848760000000     0.959490000000    -0.426319   
O        O      0.846230000000     0.900080000000     0.064800000000    -0.426319   
O        O      0.626810000000     0.895490000000     0.100550000000    -0.426319   
O        O      0.305880000000     0.694070000000     0.251030000000    -0.426319   
O        O      0.943350000000     0.806610000000     0.368730000000    -0.426319   
O        O      0.512390000000     0.872150000000     0.285180000000    -0.426319   
O        O      0.505500000000     0.042570000000     0.361130000000    -0.426319   
O        O      0.245350000000     0.845580000000     0.391290000000    -0.426319   
O        O      0.291260000000     0.981830000000     0.498150000000    -0.426319   
O        O      0.587220000000     0.648600000000     0.305300000000    -0.426319   
O        O      0.616010000000     0.484480000000     0.381580000000    -0.426319   
O        O      0.527940000000     0.813270000000     0.477560000000    -0.426319   
O        O      0.606590000000     0.651240000000     0.540510000000    -0.426319   
O        O      0.346230000000     0.599920000000     0.435200000000    -0.426319   
O        O      0.126810000000     0.604510000000     0.399450000000    -0.426319   
O        O      0.194120000000     0.194070000000     0.751030000000    -0.426319   
O        O      0.556650000000     0.306610000000     0.868730000000    -0.426319   
O        O      0.987610000000     0.372150000000     0.785180000000    -0.426319   
O        O      0.994500000000     0.542570000000     0.861130000000    -0.426319   
O        O      0.254650000000     0.345580000000     0.891290000000    -0.426319   
O        O      0.208740000000     0.481830000000     0.998150000000    -0.426319   
O        O      0.912780000000     0.148600000000     0.805300000000    -0.426319   
O        O      0.883990000000     0.984480000000     0.881580000000    -0.426319   
O        O      0.972060000000     0.313270000000     0.977560000000    -0.426319   
O        O      0.893410000000     0.151240000000     0.040510000000    -0.426319   
O        O      0.153770000000     0.099920000000     0.935200000000    -0.426319   
O        O      0.373190000000     0.104510000000     0.899450000000    -0.426319   
O        O      0.694120000000     0.305930000000     0.748970000000    -0.426319   
O        O      0.056650000000     0.193390000000     0.631270000000    -0.426319   
O        O      0.487610000000     0.127850000000     0.714820000000    -0.426319   
O        O      0.494500000000     0.957430000000     0.638870000000    -0.426319   
O        O      0.754650000000     0.154420000000     0.608710000000    -0.426319   
O        O      0.708740000000     0.018170000000     0.501850000000    -0.426319   
O        O      0.412780000000     0.351400000000     0.694700000000    -0.426319   
O        O      0.383990000000     0.515520000000     0.618420000000    -0.426319   
O        O      0.472060000000     0.186730000000     0.522440000000    -0.426319   
O        O      0.393410000000     0.348760000000     0.459490000000    -0.426319   
O        O      0.653770000000     0.400080000000     0.564800000000    -0.426319   
O        O      0.873190000000     0.395490000000     0.600550000000    -0.426319   


