data_NOFHUM_original

_audit_creation_method RASPA-1.0
_audit_creation_date 2022-1-29
_audit_author_name 'Felipe Lopes de Oliveira <felipe.lopes.oliveira@ibm.com>'

_cell_length_a    9.2974
_cell_length_b    15.8816
_cell_length_c    25.287
_cell_angle_alpha 90
_cell_angle_beta  90
_cell_angle_gamma 90
_cell_volume      3733.82

_symmetry_cell_setting          triclinic
_symmetry_space_group_name_Hall 'P 1'
_symmetry_space_group_name_H-M  'P 1'
_symmetry_Int_Tables_number     1

_symmetry_equiv_pos_as_xyz 'x,y,z'

loop_
_atom_site_label
_atom_site_type_symbol
_atom_site_fract_x
_atom_site_fract_y
_atom_site_fract_z
_atom_site_charge
Zn       Zn     0.103530000000     0.570140000000     0.991060000000     0.447908   
Zn       Zn     0.896470000000     0.929860000000     0.491060000000     0.447908   
Zn       Zn     0.896470000000     0.429860000000     0.008940000000     0.447908   
Zn       Zn     0.103530000000     0.070140000000     0.508940000000     0.447908   
Zn       Zn     0.603530000000     0.429860000000     0.508940000000     0.447908   
Zn       Zn     0.396470000000     0.070140000000     0.008940000000     0.447908   
Zn       Zn     0.396470000000     0.570140000000     0.491060000000     0.447908   
Zn       Zn     0.603530000000     0.929860000000     0.991060000000     0.447908   
H        H      0.617900000000     0.980900000000     0.628500000000     0.0554362  
H        H      0.481700000000     0.030500000000     0.699300000000     0.0554362  
H        H      0.773400000000     0.215200000000     0.723700000000     0.0554362  
H        H      0.911200000000     0.162800000000     0.654100000000     0.0554362  
H        H      0.332100000000     0.440000000000     0.873400000000     0.0554362  
H        H      0.461300000000     0.362100000000     0.812200000000     0.0554362  
H        H      0.282900000000     0.147900000000     0.867900000000     0.0554362  
H        H      0.146500000000     0.226800000000     0.927800000000     0.0554362  
H        H      0.382100000000     0.519100000000     0.128500000000     0.0554362  
H        H      0.518300000000     0.469500000000     0.199300000000     0.0554362  
H        H      0.226600000000     0.284800000000     0.223700000000     0.0554362  
H        H      0.088800000000     0.337200000000     0.154100000000     0.0554362  
H        H      0.667900000000     0.060000000000     0.373400000000     0.0554362  
H        H      0.538700000000     0.137900000000     0.312200000000     0.0554362  
H        H      0.717100000000     0.352100000000     0.367900000000     0.0554362  
H        H      0.853500000000     0.273200000000     0.427800000000     0.0554362  
H        H      0.382100000000     0.019100000000     0.371500000000     0.0554362  
H        H      0.518300000000     0.969500000000     0.300700000000     0.0554362  
H        H      0.226600000000     0.784800000000     0.276300000000     0.0554362  
H        H      0.088800000000     0.837200000000     0.345900000000     0.0554362  
H        H      0.667900000000     0.560000000000     0.126600000000     0.0554362  
H        H      0.538700000000     0.637900000000     0.187800000000     0.0554362  
H        H      0.717100000000     0.852100000000     0.132100000000     0.0554362  
H        H      0.853500000000     0.773200000000     0.072200000000     0.0554362  
H        H      0.617900000000     0.480900000000     0.871500000000     0.0554362  
H        H      0.481700000000     0.530500000000     0.800700000000     0.0554362  
H        H      0.773400000000     0.715200000000     0.776300000000     0.0554362  
H        H      0.911200000000     0.662800000000     0.845900000000     0.0554362  
H        H      0.332100000000     0.940000000000     0.626600000000     0.0554362  
H        H      0.461300000000     0.862100000000     0.687800000000     0.0554362  
H        H      0.282900000000     0.647900000000     0.632100000000     0.0554362  
H        H      0.146500000000     0.726800000000     0.572200000000     0.0554362  
H        H      0.117900000000     0.019100000000     0.871500000000     0.0554362  
H        H      0.981700000000     0.969500000000     0.800700000000     0.0554362  
H        H      0.273400000000     0.784800000000     0.776300000000     0.0554362  
H        H      0.411200000000     0.837200000000     0.845900000000     0.0554362  
H        H      0.832100000000     0.560000000000     0.626600000000     0.0554362  
H        H      0.961300000000     0.637900000000     0.687800000000     0.0554362  
H        H      0.782900000000     0.852100000000     0.632100000000     0.0554362  
H        H      0.646500000000     0.773200000000     0.572200000000     0.0554362  
H        H      0.882100000000     0.480900000000     0.371500000000     0.0554362  
H        H      0.018300000000     0.530500000000     0.300700000000     0.0554362  
H        H      0.726600000000     0.715200000000     0.276300000000     0.0554362  
H        H      0.588800000000     0.662800000000     0.345900000000     0.0554362  
H        H      0.167900000000     0.940000000000     0.126600000000     0.0554362  
H        H      0.038700000000     0.862100000000     0.187800000000     0.0554362  
H        H      0.217100000000     0.647900000000     0.132100000000     0.0554362  
H        H      0.353500000000     0.726800000000     0.072200000000     0.0554362  
H        H      0.882100000000     0.980900000000     0.128500000000     0.0554362  
H        H      0.018300000000     0.030500000000     0.199300000000     0.0554362  
H        H      0.726600000000     0.215200000000     0.223700000000     0.0554362  
H        H      0.588800000000     0.162800000000     0.154100000000     0.0554362  
H        H      0.167900000000     0.440000000000     0.373400000000     0.0554362  
H        H      0.038700000000     0.362100000000     0.312200000000     0.0554362  
H        H      0.217100000000     0.147900000000     0.367900000000     0.0554362  
H        H      0.353500000000     0.226800000000     0.427800000000     0.0554362  
H        H      0.117900000000     0.519100000000     0.628500000000     0.0554362  
H        H      0.981700000000     0.469500000000     0.699300000000     0.0554362  
H        H      0.273400000000     0.284800000000     0.723700000000     0.0554362  
H        H      0.411200000000     0.337200000000     0.654100000000     0.0554362  
H        H      0.832100000000     0.060000000000     0.873400000000     0.0554362  
H        H      0.961300000000     0.137900000000     0.812200000000     0.0554362  
H        H      0.782900000000     0.352100000000     0.867900000000     0.0554362  
H        H      0.646500000000     0.273200000000     0.927800000000     0.0554362  
C        C      0.859300000000     0.040900000000     0.585100000000     0.0177901  
C        C      0.774700000000     0.068500000000     0.633100000000     0.0177901  
C        C      0.649400000000     0.029000000000     0.647500000000     0.0177901  
C        C      0.568100000000     0.058600000000     0.689800000000     0.0177901  
C        C      0.612100000000     0.129200000000     0.718200000000     0.0177901  
C        C      0.740800000000     0.167500000000     0.704400000000     0.0177901  
C        C      0.822200000000     0.136800000000     0.662600000000     0.0177901  
C        C      0.528600000000     0.164400000000     0.760300000000     0.0177901  
C        C      0.138800000000     0.392600000000     0.944810000000     0.0177901  
C        C      0.224800000000     0.341200000000     0.905750000000     0.0177901  
C        C      0.320100000000     0.380700000000     0.871800000000     0.0177901  
C        C      0.397500000000     0.334200000000     0.835800000000     0.0177901  
C        C      0.383700000000     0.247400000000     0.833320000000     0.0177901  
C        C      0.291300000000     0.207500000000     0.868400000000     0.0177901  
C        C      0.210900000000     0.254300000000     0.904300000000     0.0177901  
C        C      0.463300000000     0.199900000000     0.794400000000     0.0177901  
C        C      0.140700000000     0.459100000000     0.085100000000     0.0177901  
C        C      0.225300000000     0.431500000000     0.133100000000     0.0177901  
C        C      0.350600000000     0.471000000000     0.147500000000     0.0177901  
C        C      0.431900000000     0.441400000000     0.189800000000     0.0177901  
C        C      0.387900000000     0.370800000000     0.218200000000     0.0177901  
C        C      0.259200000000     0.332500000000     0.204400000000     0.0177901  
C        C      0.177800000000     0.363200000000     0.162600000000     0.0177901  
C        C      0.471400000000     0.335600000000     0.260300000000     0.0177901  
C        C      0.861200000000     0.107400000000     0.444810000000     0.0177901  
C        C      0.775200000000     0.158800000000     0.405750000000     0.0177901  
C        C      0.679900000000     0.119300000000     0.371800000000     0.0177901  
C        C      0.602500000000     0.165800000000     0.335800000000     0.0177901  
C        C      0.616300000000     0.252600000000     0.333320000000     0.0177901  
C        C      0.708700000000     0.292500000000     0.368400000000     0.0177901  
C        C      0.789100000000     0.245700000000     0.404300000000     0.0177901  
C        C      0.536700000000     0.300100000000     0.294400000000     0.0177901  
C        C      0.140700000000     0.959100000000     0.414900000000     0.0177901  
C        C      0.225300000000     0.931500000000     0.366900000000     0.0177901  
C        C      0.350600000000     0.971000000000     0.352500000000     0.0177901  
C        C      0.431900000000     0.941400000000     0.310200000000     0.0177901  
C        C      0.387900000000     0.870800000000     0.281800000000     0.0177901  
C        C      0.259200000000     0.832500000000     0.295600000000     0.0177901  
C        C      0.177800000000     0.863200000000     0.337400000000     0.0177901  
C        C      0.471400000000     0.835600000000     0.239700000000     0.0177901  
C        C      0.861200000000     0.607400000000     0.055190000000     0.0177901  
C        C      0.775200000000     0.658800000000     0.094250000000     0.0177901  
C        C      0.679900000000     0.619300000000     0.128200000000     0.0177901  
C        C      0.602500000000     0.665800000000     0.164200000000     0.0177901  
C        C      0.616300000000     0.752600000000     0.166680000000     0.0177901  
C        C      0.708700000000     0.792500000000     0.131600000000     0.0177901  
C        C      0.789100000000     0.745700000000     0.095700000000     0.0177901  
C        C      0.536700000000     0.800100000000     0.205600000000     0.0177901  
C        C      0.859300000000     0.540900000000     0.914900000000     0.0177901  
C        C      0.774700000000     0.568500000000     0.866900000000     0.0177901  
C        C      0.649400000000     0.529000000000     0.852500000000     0.0177901  
C        C      0.568100000000     0.558600000000     0.810200000000     0.0177901  
C        C      0.612100000000     0.629200000000     0.781800000000     0.0177901  
C        C      0.740800000000     0.667500000000     0.795600000000     0.0177901  
C        C      0.822200000000     0.636800000000     0.837400000000     0.0177901  
C        C      0.528600000000     0.664400000000     0.739700000000     0.0177901  
C        C      0.138800000000     0.892600000000     0.555190000000     0.0177901  
C        C      0.224800000000     0.841200000000     0.594250000000     0.0177901  
C        C      0.320100000000     0.880700000000     0.628200000000     0.0177901  
C        C      0.397500000000     0.834200000000     0.664200000000     0.0177901  
C        C      0.383700000000     0.747400000000     0.666680000000     0.0177901  
C        C      0.291300000000     0.707500000000     0.631600000000     0.0177901  
C        C      0.210900000000     0.754300000000     0.595700000000     0.0177901  
C        C      0.463300000000     0.699900000000     0.705600000000     0.0177901  
C        C      0.359300000000     0.959100000000     0.914900000000     0.0177901  
C        C      0.274700000000     0.931500000000     0.866900000000     0.0177901  
C        C      0.149400000000     0.971000000000     0.852500000000     0.0177901  
C        C      0.068100000000     0.941400000000     0.810200000000     0.0177901  
C        C      0.112100000000     0.870800000000     0.781800000000     0.0177901  
C        C      0.240800000000     0.832500000000     0.795600000000     0.0177901  
C        C      0.322200000000     0.863200000000     0.837400000000     0.0177901  
C        C      0.028600000000     0.835600000000     0.739700000000     0.0177901  
C        C      0.638800000000     0.607400000000     0.555190000000     0.0177901  
C        C      0.724800000000     0.658800000000     0.594250000000     0.0177901  
C        C      0.820100000000     0.619300000000     0.628200000000     0.0177901  
C        C      0.897500000000     0.665800000000     0.664200000000     0.0177901  
C        C      0.883700000000     0.752600000000     0.666680000000     0.0177901  
C        C      0.791300000000     0.792500000000     0.631600000000     0.0177901  
C        C      0.710900000000     0.745700000000     0.595700000000     0.0177901  
C        C      0.963300000000     0.800100000000     0.705600000000     0.0177901  
C        C      0.640700000000     0.540900000000     0.414900000000     0.0177901  
C        C      0.725300000000     0.568500000000     0.366900000000     0.0177901  
C        C      0.850600000000     0.529000000000     0.352500000000     0.0177901  
C        C      0.931900000000     0.558600000000     0.310200000000     0.0177901  
C        C      0.887900000000     0.629200000000     0.281800000000     0.0177901  
C        C      0.759200000000     0.667500000000     0.295600000000     0.0177901  
C        C      0.677800000000     0.636800000000     0.337400000000     0.0177901  
C        C      0.971400000000     0.664400000000     0.239700000000     0.0177901  
C        C      0.361200000000     0.892600000000     0.055190000000     0.0177901  
C        C      0.275200000000     0.841200000000     0.094250000000     0.0177901  
C        C      0.179900000000     0.880700000000     0.128200000000     0.0177901  
C        C      0.102500000000     0.834200000000     0.164200000000     0.0177901  
C        C      0.116300000000     0.747400000000     0.166680000000     0.0177901  
C        C      0.208700000000     0.707500000000     0.131600000000     0.0177901  
C        C      0.289100000000     0.754300000000     0.095700000000     0.0177901  
C        C      0.036700000000     0.699900000000     0.205600000000     0.0177901  
C        C      0.640700000000     0.040900000000     0.085100000000     0.0177901  
C        C      0.725300000000     0.068500000000     0.133100000000     0.0177901  
C        C      0.850600000000     0.029000000000     0.147500000000     0.0177901  
C        C      0.931900000000     0.058600000000     0.189800000000     0.0177901  
C        C      0.887900000000     0.129200000000     0.218200000000     0.0177901  
C        C      0.759200000000     0.167500000000     0.204400000000     0.0177901  
C        C      0.677800000000     0.136800000000     0.162600000000     0.0177901  
C        C      0.971400000000     0.164400000000     0.260300000000     0.0177901  
C        C      0.361200000000     0.392600000000     0.444810000000     0.0177901  
C        C      0.275200000000     0.341200000000     0.405750000000     0.0177901  
C        C      0.179900000000     0.380700000000     0.371800000000     0.0177901  
C        C      0.102500000000     0.334200000000     0.335800000000     0.0177901  
C        C      0.116300000000     0.247400000000     0.333320000000     0.0177901  
C        C      0.208700000000     0.207500000000     0.368400000000     0.0177901  
C        C      0.289100000000     0.254300000000     0.404300000000     0.0177901  
C        C      0.036700000000     0.199900000000     0.294400000000     0.0177901  
C        C      0.359300000000     0.459100000000     0.585100000000     0.0177901  
C        C      0.274700000000     0.431500000000     0.633100000000     0.0177901  
C        C      0.149400000000     0.471000000000     0.647500000000     0.0177901  
C        C      0.068100000000     0.441400000000     0.689800000000     0.0177901  
C        C      0.112100000000     0.370800000000     0.718200000000     0.0177901  
C        C      0.240800000000     0.332500000000     0.704400000000     0.0177901  
C        C      0.322200000000     0.363200000000     0.662600000000     0.0177901  
C        C      0.028600000000     0.335600000000     0.760300000000     0.0177901  
C        C      0.638800000000     0.107400000000     0.944810000000     0.0177901  
C        C      0.724800000000     0.158800000000     0.905750000000     0.0177901  
C        C      0.820100000000     0.119300000000     0.871800000000     0.0177901  
C        C      0.897500000000     0.165800000000     0.835800000000     0.0177901  
C        C      0.883700000000     0.252600000000     0.833320000000     0.0177901  
C        C      0.791300000000     0.292500000000     0.868400000000     0.0177901  
C        C      0.710900000000     0.245700000000     0.904300000000     0.0177901  
C        C      0.963300000000     0.300100000000     0.794400000000     0.0177901  
O        O      0.970700000000     0.082500000000     0.574270000000    -0.29401    
O        O      0.811600000000     0.980000000000     0.559380000000    -0.29401    
O        O      0.032600000000     0.358600000000     0.966450000000    -0.29401    
O        O      0.179300000000     0.466800000000     0.951810000000    -0.29401    
O        O      0.029300000000     0.417500000000     0.074270000000    -0.29401    
O        O      0.188400000000     0.520000000000     0.059380000000    -0.29401    
O        O      0.967400000000     0.141400000000     0.466450000000    -0.29401    
O        O      0.820700000000     0.033200000000     0.451810000000    -0.29401    
O        O      0.029300000000     0.917500000000     0.425730000000    -0.29401    
O        O      0.188400000000     0.020000000000     0.440620000000    -0.29401    
O        O      0.967400000000     0.641400000000     0.033550000000    -0.29401    
O        O      0.820700000000     0.533200000000     0.048190000000    -0.29401    
O        O      0.970700000000     0.582500000000     0.925730000000    -0.29401    
O        O      0.811600000000     0.480000000000     0.940620000000    -0.29401    
O        O      0.032600000000     0.858600000000     0.533550000000    -0.29401    
O        O      0.179300000000     0.966800000000     0.548190000000    -0.29401    
O        O      0.470700000000     0.917500000000     0.925730000000    -0.29401    
O        O      0.311600000000     0.020000000000     0.940620000000    -0.29401    
O        O      0.532600000000     0.641400000000     0.533550000000    -0.29401    
O        O      0.679300000000     0.533200000000     0.548190000000    -0.29401    
O        O      0.529300000000     0.582500000000     0.425730000000    -0.29401    
O        O      0.688400000000     0.480000000000     0.440620000000    -0.29401    
O        O      0.467400000000     0.858600000000     0.033550000000    -0.29401    
O        O      0.320700000000     0.966800000000     0.048190000000    -0.29401    
O        O      0.529300000000     0.082500000000     0.074270000000    -0.29401    
O        O      0.688400000000     0.980000000000     0.059380000000    -0.29401    
O        O      0.467400000000     0.358600000000     0.466450000000    -0.29401    
O        O      0.320700000000     0.466800000000     0.451810000000    -0.29401    
O        O      0.470700000000     0.417500000000     0.574270000000    -0.29401    
O        O      0.311600000000     0.520000000000     0.559380000000    -0.29401    
O        O      0.532600000000     0.141400000000     0.966450000000    -0.29401    
O        O      0.679300000000     0.033200000000     0.951810000000    -0.29401    


