data_NOQLOV_original

_audit_creation_method RASPA-1.0
_audit_creation_date 2022-1-28
_audit_author_name 'Felipe Lopes de Oliveira <felipe.lopes.oliveira@ibm.com>'

_cell_length_a    8.6618
_cell_length_b    9.0311
_cell_length_c    16.1728
_cell_angle_alpha 82.6217
_cell_angle_beta  74.4672
_cell_angle_gamma 61.3437
_cell_volume      1069.62

_symmetry_cell_setting          triclinic
_symmetry_space_group_name_Hall 'P 1'
_symmetry_space_group_name_H-M  'P 1'
_symmetry_Int_Tables_number     1

_symmetry_equiv_pos_as_xyz 'x,y,z'

loop_
_atom_site_label
_atom_site_type_symbol
_atom_site_fract_x
_atom_site_fract_y
_atom_site_fract_z
_atom_site_charge
In       In     0.968340000000     0.027380000000     0.370630000000     2.54451    
In       In     0.366350000000     0.972610000000     0.629380000000     2.54451    
In       In     0.088960000000     0.527390000000     0.129370000000     2.54451    
In       In     0.745720000000     0.472620000000     0.870620000000     2.54451    
H        H      0.326400000000     0.337400000000     0.464800000000     0.142333   
H        H      0.175200000000     0.488800000000     0.427200000000     0.142333   
H        H      0.382700000000     0.607000000000     0.417400000000     0.142333   
H        H      0.404400000000     0.506800000000     0.347600000000     0.142333   
H        H      0.516400000000     0.430000000000     0.409200000000     0.142333   
H        H      0.128600000000     0.662600000000     0.535200000000     0.142333   
H        H      0.091200000000     0.511200000000     0.572800000000     0.142333   
H        H      0.407100000000     0.393000000000     0.582600000000     0.142333   
H        H      0.258800000000     0.493200000000     0.652400000000     0.142333   
H        H      0.355600000000     0.570000000000     0.590800000000     0.142333   
H        H      0.541200000000     0.837400000000     0.035200000000     0.142333   
H        H      0.352400000000     0.988800000000     0.072800000000     0.142333   
H        H      0.550100000000     0.107000000000     0.082600000000     0.142333   
H        H      0.502000000000     0.006800000000     0.152400000000     0.142333   
H        H      0.675600000000     0.930000000000     0.090800000000     0.142333   
H        H      0.413800000000     0.162600000000     0.964800000000     0.142333   
H        H      0.414000000000     0.011200000000     0.927200000000     0.142333   
H        H      0.739700000000     0.893000000000     0.917400000000     0.142333   
H        H      0.661200000000     0.993200000000     0.847600000000     0.142333   
H        H      0.696400000000     0.070000000000     0.909200000000     0.142333   
C        C      0.202830000000     0.933200000000     0.497740000000     0.223962   
C        C      0.101220000000     0.124000000000     0.508960000000     0.223962   
C        C      0.127090000000     0.225600000000     0.248820000000     0.223962   
C        C      0.922850000000     0.348000000000     0.267100000000     0.223962   
C        C      0.633770000000     0.066800000000     0.502260000000     0.223962   
C        C      0.734180000000     0.876000000000     0.491040000000     0.223962   
C        C      0.601510000000     0.774400000000     0.751180000000     0.223962   
C        C      0.537950000000     0.652000000000     0.732900000000     0.223962   
C        C      0.450570000000     0.433200000000     0.002260000000     0.223962   
C        C      0.360180000000     0.624000000000     0.991040000000     0.223962   
C        C      0.125910000000     0.725600000000     0.251180000000     0.223962   
C        C      0.939950000000     0.848000000000     0.232900000000     0.223962   
C        C      0.886030000000     0.566800000000     0.997740000000     0.223962   
C        C      0.975220000000     0.376000000000     0.008960000000     0.223962   
C        C      0.102690000000     0.274400000000     0.748820000000     0.223962   
C        C      0.020850000000     0.152000000000     0.767100000000     0.223962   
C        C      0.269800000000     0.458800000000     0.457000000000     0.223962   
C        C      0.185600000000     0.541200000000     0.543000000000     0.223962   
C        C      0.476800000000     0.958800000000     0.043000000000     0.223962   
C        C      0.478600000000     0.041200000000     0.957000000000     0.223962   
N        N      0.406930000000     0.505400000000     0.402340000000    -0.408822   
N        N      0.314670000000     0.494600000000     0.597660000000    -0.408822   
N        N      0.559270000000     0.005400000000     0.097660000000    -0.408822   
N        N      0.662330000000     0.994600000000     0.902340000000    -0.408822   
O        O      0.174830000000     0.871020000000     0.442720000000    -0.495896   
O        O      0.991960000000     0.203300000000     0.462780000000    -0.495896   
O        O      0.175100000000     0.083040000000     0.283560000000    -0.495896   
O        O      0.821230000000     0.298400000000     0.316540000000    -0.495896   
O        O      0.310710000000     0.846160000000     0.544620000000    -0.495896   
O        O      0.139510000000     0.180500000000     0.562880000000    -0.495896   
O        O      0.230690000000     0.276760000000     0.201460000000    -0.495896   
O        O      0.877180000000     0.490600000000     0.230040000000    -0.495896   
O        O      0.488570000000     0.128980000000     0.557280000000    -0.495896   
O        O      0.658040000000     0.796700000000     0.537220000000    -0.495896   
O        O      0.541700000000     0.916960000000     0.716440000000    -0.495896   
O        O      0.436170000000     0.701600000000     0.683460000000    -0.495896   
O        O      0.701490000000     0.153840000000     0.455380000000    -0.495896   
O        O      0.882890000000     0.819500000000     0.437120000000    -0.495896   
O        O      0.708910000000     0.723240000000     0.798540000000    -0.495896   
O        O      0.597820000000     0.509400000000     0.769960000000    -0.495896   
O        O      0.367550000000     0.371020000000     0.057280000000    -0.495896   
O        O      0.204740000000     0.703300000000     0.037220000000    -0.495896   
O        O      0.208660000000     0.583040000000     0.216440000000    -0.495896   
O        O      0.887770000000     0.798400000000     0.183460000000    -0.495896   
O        O      0.605330000000     0.346160000000     0.955380000000    -0.495896   
O        O      0.452390000000     0.680500000000     0.937120000000    -0.495896   
O        O      0.182150000000     0.776760000000     0.298540000000    -0.495896   
O        O      0.857220000000     0.990600000000     0.269960000000    -0.495896   
O        O      0.795850000000     0.628980000000     0.942720000000    -0.495896   
O        O      0.945260000000     0.296700000000     0.962780000000    -0.495896   
O        O      0.008140000000     0.416960000000     0.783560000000    -0.495896   
O        O      0.869630000000     0.201600000000     0.816540000000    -0.495896   
O        O      0.906870000000     0.653840000000     0.044620000000    -0.495896   
O        O      0.070010000000     0.319500000000     0.062880000000    -0.495896   
O        O      0.257450000000     0.223240000000     0.701460000000    -0.495896   
O        O      0.117780000000     0.009400000000     0.730040000000    -0.495896   


