data_NUCREJ_original

_audit_creation_method RASPA-1.0
_audit_creation_date 2022-1-31
_audit_author_name 'Felipe Lopes de Oliveira <felipe.lopes.oliveira@ibm.com>'

_cell_length_a    11.321
_cell_length_b    11.321
_cell_length_c    19.872
_cell_angle_alpha 90
_cell_angle_beta  90
_cell_angle_gamma 120
_cell_volume      2205.68

_symmetry_cell_setting          triclinic
_symmetry_space_group_name_Hall 'P 1'
_symmetry_space_group_name_H-M  'P 1'
_symmetry_Int_Tables_number     1

_symmetry_equiv_pos_as_xyz 'x,y,z'

loop_
_atom_site_label
_atom_site_type_symbol
_atom_site_fract_x
_atom_site_fract_y
_atom_site_fract_z
_atom_site_charge
Zn       Zn     0.110150000000     0.408380000000     0.778260000000     0.441824   
Zn       Zn     0.298230000000     0.889850000000     0.111590000000     0.441824   
Zn       Zn     0.591620000000     0.701770000000     0.444930000000     0.441824   
Zn       Zn     0.701770000000     0.591620000000     0.221740000000     0.441824   
Zn       Zn     0.408380000000     0.110150000000     0.888410000000     0.441824   
Zn       Zn     0.889850000000     0.298230000000     0.555070000000     0.441824   
Zn       Zn     0.621770000000     0.000000000000     0.500000000000     0.441824   
Zn       Zn     0.378230000000     0.378230000000     0.833330000000     0.441824   
Zn       Zn     0.000000000000     0.621770000000     0.166670000000     0.441824   
H        H      0.157500000000     0.710000000000     0.764500000000     0.0934824  
H        H      0.203000000000     0.837500000000     0.661100000000     0.0934824  
H        H      0.086900000000     0.179100000000     0.531700000000     0.0934824  
H        H      0.318400000000     0.273900000000     0.571700000000     0.0934824  
H        H      0.467800000000     0.474900000000     0.657800000000     0.0934824  
H        H      0.422300000000     0.583300000000     0.668500000000     0.0934824  
H        H      0.150000000000     0.720300000000     0.530800000000     0.0934824  
H        H      0.209200000000     0.624000000000     0.522800000000     0.0934824  
H        H      0.552500000000     0.842500000000     0.097830000000     0.0934824  
H        H      0.634500000000     0.797000000000     0.994430000000     0.0934824  
H        H      0.092200000000     0.913100000000     0.865030000000     0.0934824  
H        H      0.955500000000     0.681600000000     0.905030000000     0.0934824  
H        H      0.007100000000     0.532200000000     0.991130000000     0.0934824  
H        H      0.161000000000     0.577700000000     0.001830000000     0.0934824  
H        H      0.570300000000     0.850000000000     0.864130000000     0.0934824  
H        H      0.414800000000     0.790800000000     0.856130000000     0.0934824  
H        H      0.290000000000     0.447500000000     0.431170000000     0.0934824  
H        H      0.162500000000     0.365500000000     0.327770000000     0.0934824  
H        H      0.820900000000     0.907800000000     0.198370000000     0.0934824  
H        H      0.726100000000     0.044500000000     0.238370000000     0.0934824  
H        H      0.525100000000     0.992900000000     0.324470000000     0.0934824  
H        H      0.416700000000     0.839000000000     0.335170000000     0.0934824  
H        H      0.279700000000     0.429700000000     0.197470000000     0.0934824  
H        H      0.376000000000     0.585200000000     0.189470000000     0.0934824  
H        H      0.447500000000     0.290000000000     0.235500000000     0.0934824  
H        H      0.365500000000     0.162500000000     0.338900000000     0.0934824  
H        H      0.907800000000     0.820900000000     0.468300000000     0.0934824  
H        H      0.044500000000     0.726100000000     0.428300000000     0.0934824  
H        H      0.992900000000     0.525100000000     0.342200000000     0.0934824  
H        H      0.839000000000     0.416700000000     0.331500000000     0.0934824  
H        H      0.429700000000     0.279700000000     0.469200000000     0.0934824  
H        H      0.585200000000     0.376000000000     0.477200000000     0.0934824  
H        H      0.710000000000     0.157500000000     0.902170000000     0.0934824  
H        H      0.837500000000     0.203000000000     0.005570000000     0.0934824  
H        H      0.179100000000     0.086900000000     0.134970000000     0.0934824  
H        H      0.273900000000     0.318400000000     0.094970000000     0.0934824  
H        H      0.474900000000     0.467800000000     0.008870000000     0.0934824  
H        H      0.583300000000     0.422300000000     0.998170000000     0.0934824  
H        H      0.720300000000     0.150000000000     0.135870000000     0.0934824  
H        H      0.624000000000     0.209200000000     0.143870000000     0.0934824  
H        H      0.842500000000     0.552500000000     0.568830000000     0.0934824  
H        H      0.797000000000     0.634500000000     0.672230000000     0.0934824  
H        H      0.913100000000     0.092200000000     0.801630000000     0.0934824  
H        H      0.681600000000     0.955500000000     0.761630000000     0.0934824  
H        H      0.532200000000     0.007100000000     0.675530000000     0.0934824  
H        H      0.577700000000     0.161000000000     0.664830000000     0.0934824  
H        H      0.850000000000     0.570300000000     0.802530000000     0.0934824  
H        H      0.790800000000     0.414800000000     0.810530000000     0.0934824  
C        C      0.168000000000     0.680500000000     0.722400000000     0.0405516  
C        C      0.192300000000     0.750900000000     0.665700000000     0.0405516  
C        C      0.180000000000     0.555500000000     0.644900000000     0.0405516  
C        C      0.186700000000     0.446500000000     0.610000000000     0.0405516  
C        C      0.134600000000     0.259300000000     0.556400000000     0.0405516  
C        C      0.262500000000     0.311400000000     0.578000000000     0.0405516  
C        C      0.430600000000     0.525100000000     0.635300000000     0.0405516  
C        C      0.529900000000     0.614000000000     0.581800000000     0.0405516  
C        C      0.224100000000     0.706500000000     0.545100000000     0.0405516  
C        C      0.378800000000     0.804100000000     0.535600000000     0.0405516  
C        C      0.512500000000     0.832000000000     0.055730000000     0.0405516  
C        C      0.558600000000     0.807700000000     0.999030000000     0.0405516  
C        C      0.375500000000     0.820000000000     0.978230000000     0.0405516  
C        C      0.259800000000     0.813300000000     0.943330000000     0.0405516  
C        C      0.124700000000     0.865400000000     0.889730000000     0.0405516  
C        C      0.048900000000     0.737500000000     0.911330000000     0.0405516  
C        C      0.094500000000     0.569400000000     0.968630000000     0.0405516  
C        C      0.084100000000     0.470100000000     0.915130000000     0.0405516  
C        C      0.482400000000     0.775900000000     0.878430000000     0.0405516  
C        C      0.425300000000     0.621200000000     0.868930000000     0.0405516  
C        C      0.319500000000     0.487500000000     0.389070000000     0.0405516  
C        C      0.249100000000     0.441400000000     0.332370000000     0.0405516  
C        C      0.444500000000     0.624500000000     0.311570000000     0.0405516  
C        C      0.553500000000     0.740200000000     0.276670000000     0.0405516  
C        C      0.740700000000     0.875300000000     0.223070000000     0.0405516  
C        C      0.688600000000     0.951100000000     0.244670000000     0.0405516  
C        C      0.474900000000     0.905500000000     0.301970000000     0.0405516  
C        C      0.386000000000     0.915900000000     0.248470000000     0.0405516  
C        C      0.293500000000     0.517600000000     0.211770000000     0.0405516  
C        C      0.195900000000     0.574700000000     0.202270000000     0.0405516  
C        C      0.487500000000     0.319500000000     0.277600000000     0.0405516  
C        C      0.441400000000     0.249100000000     0.334300000000     0.0405516  
C        C      0.624500000000     0.444500000000     0.355100000000     0.0405516  
C        C      0.740200000000     0.553500000000     0.390000000000     0.0405516  
C        C      0.875300000000     0.740700000000     0.443600000000     0.0405516  
C        C      0.951100000000     0.688600000000     0.422000000000     0.0405516  
C        C      0.905500000000     0.474900000000     0.364700000000     0.0405516  
C        C      0.915900000000     0.386000000000     0.418200000000     0.0405516  
C        C      0.517600000000     0.293500000000     0.454900000000     0.0405516  
C        C      0.574700000000     0.195900000000     0.464400000000     0.0405516  
C        C      0.680500000000     0.168000000000     0.944270000000     0.0405516  
C        C      0.750900000000     0.192300000000     0.000970000000     0.0405516  
C        C      0.555500000000     0.180000000000     0.021770000000     0.0405516  
C        C      0.446500000000     0.186700000000     0.056670000000     0.0405516  
C        C      0.259300000000     0.134600000000     0.110270000000     0.0405516  
C        C      0.311400000000     0.262500000000     0.088670000000     0.0405516  
C        C      0.525100000000     0.430600000000     0.031370000000     0.0405516  
C        C      0.614000000000     0.529900000000     0.084870000000     0.0405516  
C        C      0.706500000000     0.224100000000     0.121570000000     0.0405516  
C        C      0.804100000000     0.378800000000     0.131070000000     0.0405516  
C        C      0.832000000000     0.512500000000     0.610930000000     0.0405516  
C        C      0.807700000000     0.558600000000     0.667630000000     0.0405516  
C        C      0.820000000000     0.375500000000     0.688430000000     0.0405516  
C        C      0.813300000000     0.259800000000     0.723330000000     0.0405516  
C        C      0.865400000000     0.124700000000     0.776930000000     0.0405516  
C        C      0.737500000000     0.048900000000     0.755330000000     0.0405516  
C        C      0.569400000000     0.094500000000     0.698030000000     0.0405516  
C        C      0.470100000000     0.084100000000     0.751530000000     0.0405516  
C        C      0.775900000000     0.482400000000     0.788230000000     0.0405516  
C        C      0.621200000000     0.425300000000     0.797730000000     0.0405516  
N        N      0.160800000000     0.559600000000     0.710000000000    -0.113603   
N        N      0.198500000000     0.670900000000     0.614700000000    -0.113603   
N        N      0.083000000000     0.342500000000     0.576300000000    -0.113603   
N        N      0.296500000000     0.429300000000     0.610700000000    -0.113603   
N        N      0.398800000000     0.839200000000     0.043330000000    -0.113603   
N        N      0.472400000000     0.801500000000     0.948030000000    -0.113603   
N        N      0.259500000000     0.917000000000     0.909630000000    -0.113603   
N        N      0.132800000000     0.703500000000     0.944030000000    -0.113603   
N        N      0.440400000000     0.601200000000     0.376670000000    -0.113603   
N        N      0.329100000000     0.527600000000     0.281370000000    -0.113603   
N        N      0.657500000000     0.740500000000     0.242970000000    -0.113603   
N        N      0.570700000000     0.867200000000     0.277370000000    -0.113603   
N        N      0.601200000000     0.440400000000     0.290000000000    -0.113603   
N        N      0.527600000000     0.329100000000     0.385300000000    -0.113603   
N        N      0.740500000000     0.657500000000     0.423700000000    -0.113603   
N        N      0.867200000000     0.570700000000     0.389300000000    -0.113603   
N        N      0.559600000000     0.160800000000     0.956670000000    -0.113603   
N        N      0.670900000000     0.198500000000     0.051970000000    -0.113603   
N        N      0.342500000000     0.083000000000     0.090370000000    -0.113603   
N        N      0.429300000000     0.296500000000     0.055970000000    -0.113603   
N        N      0.839200000000     0.398800000000     0.623330000000    -0.113603   
N        N      0.801500000000     0.472400000000     0.718630000000    -0.113603   
N        N      0.917000000000     0.259500000000     0.757030000000    -0.113603   
N        N      0.703500000000     0.132800000000     0.722630000000    -0.113603   
O        O      0.483100000000     0.594700000000     0.522000000000    -0.27234    
O        O      0.645500000000     0.697900000000     0.599200000000    -0.27234    
O        O      0.673100000000     0.893200000000     0.442900000000    -0.27234    
O        O      0.463300000000     0.841000000000     0.584600000000    -0.27234    
O        O      0.421600000000     0.854100000000     0.477500000000    -0.27234    
O        O      0.111600000000     0.516900000000     0.855330000000    -0.27234    
O        O      0.052400000000     0.354500000000     0.932530000000    -0.27234    
O        O      0.220100000000     0.326900000000     0.776230000000    -0.27234    
O        O      0.377700000000     0.536700000000     0.917930000000    -0.27234    
O        O      0.432500000000     0.578400000000     0.810830000000    -0.27234    
O        O      0.405300000000     0.888400000000     0.188670000000    -0.27234    
O        O      0.302100000000     0.947600000000     0.265870000000    -0.27234    
O        O      0.106800000000     0.779900000000     0.109570000000    -0.27234    
O        O      0.159000000000     0.622300000000     0.251270000000    -0.27234    
O        O      0.145900000000     0.567500000000     0.144170000000    -0.27234    
O        O      0.888400000000     0.405300000000     0.478000000000    -0.27234    
O        O      0.947600000000     0.302100000000     0.400800000000    -0.27234    
O        O      0.779900000000     0.106800000000     0.557100000000    -0.27234    
O        O      0.622300000000     0.159000000000     0.415400000000    -0.27234    
O        O      0.567500000000     0.145900000000     0.522500000000    -0.27234    
O        O      0.594700000000     0.483100000000     0.144670000000    -0.27234    
O        O      0.697900000000     0.645500000000     0.067470000000    -0.27234    
O        O      0.893200000000     0.673100000000     0.223770000000    -0.27234    
O        O      0.841000000000     0.463300000000     0.082070000000    -0.27234    
O        O      0.854100000000     0.421600000000     0.189170000000    -0.27234    
O        O      0.516900000000     0.111600000000     0.811330000000    -0.27234    
O        O      0.354500000000     0.052400000000     0.734130000000    -0.27234    
O        O      0.326900000000     0.220100000000     0.890430000000    -0.27234    
O        O      0.536700000000     0.377700000000     0.748730000000    -0.27234    
O        O      0.578400000000     0.432500000000     0.855830000000    -0.27234    


