data_OBUFIB_original

_audit_creation_method RASPA-1.0
_audit_creation_date 2022-1-31
_audit_author_name 'Felipe Lopes de Oliveira <felipe.lopes.oliveira@ibm.com>'

_cell_length_a    8.5416
_cell_length_b    13.6688
_cell_length_c    18.225
_cell_angle_alpha 88.2702
_cell_angle_beta  84.4559
_cell_angle_gamma 71.7932
_cell_volume      2011.85

_symmetry_cell_setting          triclinic
_symmetry_space_group_name_Hall 'P 1'
_symmetry_space_group_name_H-M  'P 1'
_symmetry_Int_Tables_number     1

_symmetry_equiv_pos_as_xyz 'x,y,z'

loop_
_atom_site_label
_atom_site_type_symbol
_atom_site_fract_x
_atom_site_fract_y
_atom_site_fract_z
_atom_site_charge
Zn       Zn     0.377070000000     0.446640000000     0.471130000000     0.464228   
Zn       Zn     0.189910000000     0.675600000000     0.508360000000     0.464228   
Zn       Zn     0.176290000000     0.446640000000     0.028870000000     0.464228   
Zn       Zn     0.134490000000     0.675600000000     0.991640000000     0.464228   
Zn       Zn     0.622930000000     0.553360000000     0.528870000000     0.464228   
Zn       Zn     0.810090000000     0.324400000000     0.491640000000     0.464228   
Zn       Zn     0.823710000000     0.553360000000     0.971130000000     0.464228   
Zn       Zn     0.865510000000     0.324400000000     0.008360000000     0.464228   
H        H      0.667400000000     0.383800000000     0.240700000000     0.0818328  
H        H      0.479000000000     0.650400000000     0.163400000000     0.0818328  
H        H      0.348500000000     0.613200000000     0.213700000000     0.0818328  
H        H      0.272800000000     0.987800000000     0.606800000000     0.0818328  
H        H      0.225200000000     0.834400000000     0.612700000000     0.0818328  
H        H      0.170700000000     0.843200000000     0.404900000000     0.0818328  
H        H      0.211800000000     0.999400000000     0.394200000000     0.0818328  
H        H      0.360400000000     0.117000000000     0.591900000000     0.0818328  
H        H      0.419300000000     0.267800000000     0.576500000000     0.0818328  
H        H      0.246200000000     0.308800000000     0.387300000000     0.0818328  
H        H      0.196100000000     0.154000000000     0.394900000000     0.0818328  
H        H      0.948800000000     0.383800000000     0.259300000000     0.0818328  
H        H      0.870600000000     0.650400000000     0.336600000000     0.0818328  
H        H      0.038300000000     0.613200000000     0.286300000000     0.0818328  
H        H      0.739400000000     0.987800000000     0.893200000000     0.0818328  
H        H      0.940400000000     0.834400000000     0.887300000000     0.0818328  
H        H      0.986100000000     0.843200000000     0.095100000000     0.0818328  
H        H      0.788800000000     0.999400000000     0.105800000000     0.0818328  
H        H      0.522600000000     0.117000000000     0.908100000000     0.0818328  
H        H      0.312900000000     0.267800000000     0.923500000000     0.0818328  
H        H      0.445000000000     0.308800000000     0.112700000000     0.0818328  
H        H      0.649900000000     0.154000000000     0.105100000000     0.0818328  
H        H      0.332600000000     0.616200000000     0.759300000000     0.0818328  
H        H      0.521000000000     0.349600000000     0.836600000000     0.0818328  
H        H      0.651500000000     0.386800000000     0.786300000000     0.0818328  
H        H      0.727200000000     0.012200000000     0.393200000000     0.0818328  
H        H      0.774800000000     0.165600000000     0.387300000000     0.0818328  
H        H      0.829300000000     0.156800000000     0.595100000000     0.0818328  
H        H      0.788200000000     0.000600000000     0.605800000000     0.0818328  
H        H      0.639600000000     0.883000000000     0.408100000000     0.0818328  
H        H      0.580700000000     0.732200000000     0.423500000000     0.0818328  
H        H      0.753800000000     0.691200000000     0.612700000000     0.0818328  
H        H      0.803900000000     0.846000000000     0.605100000000     0.0818328  
H        H      0.051200000000     0.616200000000     0.740700000000     0.0818328  
H        H      0.129400000000     0.349600000000     0.663400000000     0.0818328  
H        H      0.961700000000     0.386800000000     0.713700000000     0.0818328  
H        H      0.260600000000     0.012200000000     0.106800000000     0.0818328  
H        H      0.059600000000     0.165600000000     0.112700000000     0.0818328  
H        H      0.013900000000     0.156800000000     0.904900000000     0.0818328  
H        H      0.211200000000     0.000600000000     0.894200000000     0.0818328  
H        H      0.477400000000     0.883000000000     0.091900000000     0.0818328  
H        H      0.687100000000     0.732200000000     0.076500000000     0.0818328  
H        H      0.555000000000     0.691200000000     0.887300000000     0.0818328  
H        H      0.350100000000     0.846000000000     0.894900000000     0.0818328  
C        C      0.501820000000     0.486360000000     0.318850000000     0.0294356  
C        C      0.586530000000     0.447940000000     0.242370000000     0.0294356  
C        C      0.559040000000     0.493320000000     0.181910000000     0.0294356  
C        C      0.680520000000     0.454560000000     0.113820000000     0.0294356  
C        C      0.427290000000     0.596420000000     0.170380000000     0.0294356  
C        C      0.337120000000     0.590560000000     0.102630000000     0.0294356  
C        C      0.250000000000     0.960400000000     0.564490000000     0.0294356  
C        C      0.223150000000     0.868100000000     0.567570000000     0.0294356  
C        C      0.190600000000     0.873200000000     0.446710000000     0.0294356  
C        C      0.215030000000     0.967140000000     0.439990000000     0.0294356  
C        C      0.243890000000     0.014220000000     0.499660000000     0.0294356  
C        C      0.275840000000     0.113720000000     0.493940000000     0.0294356  
C        C      0.339040000000     0.153320000000     0.548130000000     0.0294356  
C        C      0.371600000000     0.245200000000     0.539310000000     0.0294356  
C        C      0.272990000000     0.268420000000     0.429080000000     0.0294356  
C        C      0.241340000000     0.175120000000     0.433560000000     0.0294356  
C        C      0.011820000000     0.486360000000     0.181150000000     0.0294356  
C        C      0.965530000000     0.447940000000     0.257630000000     0.0294356  
C        C      0.947640000000     0.493320000000     0.318090000000     0.0294356  
C        C      0.864920000000     0.454560000000     0.386180000000     0.0294356  
C        C      0.976290000000     0.596420000000     0.329620000000     0.0294356  
C        C      0.072320000000     0.590560000000     0.397370000000     0.0294356  
C        C      0.789600000000     0.960400000000     0.935510000000     0.0294356  
C        C      0.908750000000     0.868100000000     0.932430000000     0.0294356  
C        C      0.936200000000     0.873200000000     0.053290000000     0.0294356  
C        C      0.817830000000     0.967140000000     0.060010000000     0.0294356  
C        C      0.741890000000     0.014220000000     0.000340000000     0.0294356  
C        C      0.610440000000     0.113720000000     0.006060000000     0.0294356  
C        C      0.507640000000     0.153320000000     0.951870000000     0.0294356  
C        C      0.383200000000     0.245200000000     0.960690000000     0.0294356  
C        C      0.458590000000     0.268420000000     0.070920000000     0.0294356  
C        C      0.583540000000     0.175120000000     0.066440000000     0.0294356  
C        C      0.498180000000     0.513640000000     0.681150000000     0.0294356  
C        C      0.413470000000     0.552060000000     0.757630000000     0.0294356  
C        C      0.440960000000     0.506680000000     0.818090000000     0.0294356  
C        C      0.319480000000     0.545440000000     0.886180000000     0.0294356  
C        C      0.572710000000     0.403580000000     0.829620000000     0.0294356  
C        C      0.662880000000     0.409440000000     0.897370000000     0.0294356  
C        C      0.750000000000     0.039600000000     0.435510000000     0.0294356  
C        C      0.776850000000     0.131900000000     0.432430000000     0.0294356  
C        C      0.809400000000     0.126800000000     0.553290000000     0.0294356  
C        C      0.784970000000     0.032860000000     0.560010000000     0.0294356  
C        C      0.756110000000     0.985780000000     0.500340000000     0.0294356  
C        C      0.724160000000     0.886280000000     0.506060000000     0.0294356  
C        C      0.660960000000     0.846680000000     0.451870000000     0.0294356  
C        C      0.628400000000     0.754800000000     0.460690000000     0.0294356  
C        C      0.727010000000     0.731580000000     0.570920000000     0.0294356  
C        C      0.758660000000     0.824880000000     0.566440000000     0.0294356  
C        C      0.988180000000     0.513640000000     0.818850000000     0.0294356  
C        C      0.034470000000     0.552060000000     0.742370000000     0.0294356  
C        C      0.052360000000     0.506680000000     0.681910000000     0.0294356  
C        C      0.135080000000     0.545440000000     0.613820000000     0.0294356  
C        C      0.023710000000     0.403580000000     0.670380000000     0.0294356  
C        C      0.927680000000     0.409440000000     0.602630000000     0.0294356  
C        C      0.210400000000     0.039600000000     0.064490000000     0.0294356  
C        C      0.091250000000     0.131900000000     0.067570000000     0.0294356  
C        C      0.063800000000     0.126800000000     0.946710000000     0.0294356  
C        C      0.182170000000     0.032860000000     0.939990000000     0.0294356  
C        C      0.258110000000     0.985780000000     0.999660000000     0.0294356  
C        C      0.389560000000     0.886280000000     0.993940000000     0.0294356  
C        C      0.492360000000     0.846680000000     0.048130000000     0.0294356  
C        C      0.616800000000     0.754800000000     0.039310000000     0.0294356  
C        C      0.541410000000     0.731580000000     0.929080000000     0.0294356  
C        C      0.416460000000     0.824880000000     0.933560000000     0.0294356  
N        N      0.194090000000     0.823280000000     0.509100000000    -0.166421   
N        N      0.337670000000     0.302480000000     0.479950000000    -0.166421   
N        N      0.982630000000     0.823280000000     0.990900000000    -0.166421   
N        N      0.359850000000     0.302480000000     0.020050000000    -0.166421   
N        N      0.805910000000     0.176720000000     0.490900000000    -0.166421   
N        N      0.662330000000     0.697520000000     0.520050000000    -0.166421   
N        N      0.017370000000     0.176720000000     0.009100000000    -0.166421   
N        N      0.640150000000     0.697520000000     0.979950000000    -0.166421   
O        O      0.451560000000     0.588680000000     0.328220000000    -0.280963   
O        O      0.501730000000     0.411180000000     0.365890000000    -0.280963   
O        O      0.747820000000     0.358040000000     0.105370000000    -0.280963   
O        O      0.704800000000     0.521020000000     0.073160000000    -0.280963   
O        O      0.336500000000     0.507800000000     0.080710000000    -0.280963   
O        O      0.265620000000     0.676440000000     0.073300000000    -0.280963   
O        O      0.411040000000     0.593340000000     0.474350000000    -0.280963   
O        O      0.959760000000     0.588680000000     0.171780000000    -0.280963   
O        O      0.087090000000     0.411180000000     0.134110000000    -0.280963   
O        O      0.894140000000     0.358040000000     0.394630000000    -0.280963   
O        O      0.774180000000     0.521020000000     0.426840000000    -0.280963   
O        O      0.155700000000     0.507800000000     0.419290000000    -0.280963   
O        O      0.057940000000     0.676440000000     0.426700000000    -0.280963   
O        O      0.995620000000     0.593340000000     0.025650000000    -0.280963   
O        O      0.548440000000     0.411320000000     0.671780000000    -0.280963   
O        O      0.498270000000     0.588820000000     0.634110000000    -0.280963   
O        O      0.252180000000     0.641960000000     0.894630000000    -0.280963   
O        O      0.295200000000     0.478980000000     0.926840000000    -0.280963   
O        O      0.663500000000     0.492200000000     0.919290000000    -0.280963   
O        O      0.734380000000     0.323560000000     0.926700000000    -0.280963   
O        O      0.588960000000     0.406660000000     0.525650000000    -0.280963   
O        O      0.040240000000     0.411320000000     0.828220000000    -0.280963   
O        O      0.912910000000     0.588820000000     0.865890000000    -0.280963   
O        O      0.105860000000     0.641960000000     0.605370000000    -0.280963   
O        O      0.225820000000     0.478980000000     0.573160000000    -0.280963   
O        O      0.844300000000     0.492200000000     0.580710000000    -0.280963   
O        O      0.942060000000     0.323560000000     0.573300000000    -0.280963   
O        O      0.004380000000     0.406660000000     0.974350000000    -0.280963   


