data_OBUFEX_original

_audit_creation_method RASPA-1.0
_audit_creation_date 2022-1-30
_audit_author_name 'Felipe Lopes de Oliveira <felipe.lopes.oliveira@ibm.com>'

_cell_length_a    11.442
_cell_length_b    13.373
_cell_length_c    15.807
_cell_angle_alpha 90
_cell_angle_beta  90
_cell_angle_gamma 101.36
_cell_volume      2371.31

_symmetry_cell_setting          triclinic
_symmetry_space_group_name_Hall 'P 1'
_symmetry_space_group_name_H-M  'P 1'
_symmetry_Int_Tables_number     1

_symmetry_equiv_pos_as_xyz 'x,y,z'

loop_
_atom_site_label
_atom_site_type_symbol
_atom_site_fract_x
_atom_site_fract_y
_atom_site_fract_z
_atom_site_charge
Zn       Zn     0.428890000000     0.891630000000     0.578840000000     0.452489   
Zn       Zn     0.571110000000     0.608370000000     0.078840000000     0.452489   
Zn       Zn     0.571110000000     0.108370000000     0.421160000000     0.452489   
Zn       Zn     0.428890000000     0.391630000000     0.921160000000     0.452489   
H        H      0.609800000000     0.826500000000     0.884500000000     0.0928706  
H        H      0.600400000000     0.841200000000     0.786400000000     0.0928706  
H        H      0.384100000000     0.617900000000     0.766000000000     0.0928706  
H        H      0.039000000000     0.963600000000     0.688800000000     0.0928706  
H        H      0.237800000000     0.960500000000     0.684400000000     0.0928706  
H        H      0.199800000000     0.806000000000     0.478000000000     0.0928706  
H        H      0.001200000000     0.808400000000     0.472300000000     0.0928706  
H        H      0.866400000000     0.002200000000     0.663300000000     0.0928706  
H        H      0.666800000000     0.002300000000     0.660200000000     0.0928706  
H        H      0.614000000000     0.776300000000     0.501400000000     0.0928706  
H        H      0.811400000000     0.772300000000     0.499700000000     0.0928706  
H        H      0.390200000000     0.673500000000     0.384500000000     0.0928706  
H        H      0.399600000000     0.658800000000     0.286400000000     0.0928706  
H        H      0.615900000000     0.882100000000     0.266000000000     0.0928706  
H        H      0.961000000000     0.536400000000     0.188800000000     0.0928706  
H        H      0.762200000000     0.539500000000     0.184400000000     0.0928706  
H        H      0.800200000000     0.694000000000     0.978000000000     0.0928706  
H        H      0.998800000000     0.691600000000     0.972300000000     0.0928706  
H        H      0.133600000000     0.497800000000     0.163300000000     0.0928706  
H        H      0.333200000000     0.497700000000     0.160200000000     0.0928706  
H        H      0.386000000000     0.723700000000     0.001400000000     0.0928706  
H        H      0.188600000000     0.727700000000     0.999700000000     0.0928706  
H        H      0.390200000000     0.173500000000     0.115500000000     0.0928706  
H        H      0.399600000000     0.158800000000     0.213600000000     0.0928706  
H        H      0.615900000000     0.382100000000     0.234000000000     0.0928706  
H        H      0.961000000000     0.036400000000     0.311200000000     0.0928706  
H        H      0.762200000000     0.039500000000     0.315600000000     0.0928706  
H        H      0.800200000000     0.194000000000     0.522000000000     0.0928706  
H        H      0.998800000000     0.191600000000     0.527700000000     0.0928706  
H        H      0.133600000000     0.997800000000     0.336700000000     0.0928706  
H        H      0.333200000000     0.997700000000     0.339800000000     0.0928706  
H        H      0.386000000000     0.223700000000     0.498600000000     0.0928706  
H        H      0.188600000000     0.227700000000     0.500300000000     0.0928706  
H        H      0.609800000000     0.326500000000     0.615500000000     0.0928706  
H        H      0.600400000000     0.341200000000     0.713600000000     0.0928706  
H        H      0.384100000000     0.117900000000     0.734000000000     0.0928706  
H        H      0.039000000000     0.463600000000     0.811200000000     0.0928706  
H        H      0.237800000000     0.460500000000     0.815600000000     0.0928706  
H        H      0.199800000000     0.306000000000     0.022000000000     0.0928706  
H        H      0.001200000000     0.308400000000     0.027700000000     0.0928706  
H        H      0.866400000000     0.502200000000     0.836700000000     0.0928706  
H        H      0.666800000000     0.502300000000     0.839800000000     0.0928706  
H        H      0.614000000000     0.276300000000     0.998600000000     0.0928706  
H        H      0.811400000000     0.272300000000     0.000300000000     0.0928706  
C        C      0.424800000000     0.746200000000     0.690220000000     0.0307242  
C        C      0.737400000000     0.768400000000     0.818690000000     0.0307242  
C        C      0.613700000000     0.793770000000     0.830100000000     0.0307242  
C        C      0.437600000000     0.679890000000     0.763060000000     0.0307242  
C        C      0.518650000000     0.699890000000     0.825470000000     0.0307242  
C        C      0.517460000000     0.622790000000     0.894410000000     0.0307242  
C        C      0.069400000000     0.932200000000     0.643650000000     0.0307242  
C        C      0.189600000000     0.930000000000     0.640360000000     0.0307242  
C        C      0.167240000000     0.840800000000     0.519990000000     0.0307242  
C        C      0.047050000000     0.840400000000     0.516850000000     0.0307242  
C        C      0.994710000000     0.887770000000     0.580000000000     0.0307242  
C        C      0.865030000000     0.888940000000     0.580660000000     0.0307242  
C        C      0.816870000000     0.955780000000     0.628870000000     0.0307242  
C        C      0.696380000000     0.955360000000     0.627170000000     0.0307242  
C        C      0.665410000000     0.823370000000     0.534110000000     0.0307242  
C        C      0.784380000000     0.820520000000     0.532860000000     0.0307242  
C        C      0.575200000000     0.753800000000     0.190220000000     0.0307242  
C        C      0.262600000000     0.731600000000     0.318690000000     0.0307242  
C        C      0.386300000000     0.706230000000     0.330100000000     0.0307242  
C        C      0.562400000000     0.820110000000     0.263060000000     0.0307242  
C        C      0.481350000000     0.800110000000     0.325470000000     0.0307242  
C        C      0.482540000000     0.877210000000     0.394410000000     0.0307242  
C        C      0.930600000000     0.567800000000     0.143650000000     0.0307242  
C        C      0.810400000000     0.570000000000     0.140360000000     0.0307242  
C        C      0.832760000000     0.659200000000     0.019990000000     0.0307242  
C        C      0.952950000000     0.659600000000     0.016850000000     0.0307242  
C        C      0.005290000000     0.612230000000     0.080000000000     0.0307242  
C        C      0.134970000000     0.611060000000     0.080660000000     0.0307242  
C        C      0.183130000000     0.544220000000     0.128870000000     0.0307242  
C        C      0.303620000000     0.544640000000     0.127170000000     0.0307242  
C        C      0.334590000000     0.676630000000     0.034110000000     0.0307242  
C        C      0.215620000000     0.679480000000     0.032860000000     0.0307242  
C        C      0.575200000000     0.253800000000     0.309780000000     0.0307242  
C        C      0.262600000000     0.231600000000     0.181310000000     0.0307242  
C        C      0.386300000000     0.206230000000     0.169900000000     0.0307242  
C        C      0.562400000000     0.320110000000     0.236940000000     0.0307242  
C        C      0.481350000000     0.300110000000     0.174530000000     0.0307242  
C        C      0.482540000000     0.377210000000     0.105590000000     0.0307242  
C        C      0.930600000000     0.067800000000     0.356350000000     0.0307242  
C        C      0.810400000000     0.070000000000     0.359640000000     0.0307242  
C        C      0.832760000000     0.159200000000     0.480010000000     0.0307242  
C        C      0.952950000000     0.159600000000     0.483150000000     0.0307242  
C        C      0.005290000000     0.112230000000     0.420000000000     0.0307242  
C        C      0.134970000000     0.111060000000     0.419340000000     0.0307242  
C        C      0.183130000000     0.044220000000     0.371130000000     0.0307242  
C        C      0.303620000000     0.044640000000     0.372830000000     0.0307242  
C        C      0.334590000000     0.176630000000     0.465890000000     0.0307242  
C        C      0.215620000000     0.179480000000     0.467140000000     0.0307242  
C        C      0.424800000000     0.246200000000     0.809780000000     0.0307242  
C        C      0.737400000000     0.268400000000     0.681310000000     0.0307242  
C        C      0.613700000000     0.293770000000     0.669900000000     0.0307242  
C        C      0.437600000000     0.179890000000     0.736940000000     0.0307242  
C        C      0.518650000000     0.199890000000     0.674530000000     0.0307242  
C        C      0.517460000000     0.122790000000     0.605590000000     0.0307242  
C        C      0.069400000000     0.432200000000     0.856350000000     0.0307242  
C        C      0.189600000000     0.430000000000     0.859640000000     0.0307242  
C        C      0.167240000000     0.340800000000     0.980010000000     0.0307242  
C        C      0.047050000000     0.340400000000     0.983150000000     0.0307242  
C        C      0.994710000000     0.387770000000     0.920000000000     0.0307242  
C        C      0.865030000000     0.388940000000     0.919340000000     0.0307242  
C        C      0.816870000000     0.455780000000     0.871130000000     0.0307242  
C        C      0.696380000000     0.455360000000     0.872830000000     0.0307242  
C        C      0.665410000000     0.323370000000     0.965890000000     0.0307242  
C        C      0.784380000000     0.320520000000     0.967140000000     0.0307242  
N        N      0.619900000000     0.889360000000     0.579280000000    -0.153875   
N        N      0.239480000000     0.888070000000     0.579740000000    -0.153875   
N        N      0.380100000000     0.610640000000     0.079280000000    -0.153875   
N        N      0.760520000000     0.611930000000     0.079740000000    -0.153875   
N        N      0.380100000000     0.110640000000     0.420720000000    -0.153875   
N        N      0.760520000000     0.111930000000     0.420260000000    -0.153875   
N        N      0.619900000000     0.389360000000     0.920720000000    -0.153875   
N        N      0.239480000000     0.388070000000     0.920260000000    -0.153875   
O        O      0.824740000000     0.838760000000     0.843730000000    -0.276317   
O        O      0.751630000000     0.690850000000     0.789260000000    -0.276317   
O        O      0.416520000000     0.711690000000     0.618100000000    -0.276317   
O        O      0.422550000000     0.838700000000     0.705210000000    -0.276317   
O        O      0.582830000000     0.651730000000     0.957340000000    -0.276317   
O        O      0.450770000000     0.537310000000     0.885450000000    -0.276317   
O        O      0.175260000000     0.661240000000     0.343730000000    -0.276317   
O        O      0.248370000000     0.809150000000     0.289260000000    -0.276317   
O        O      0.583480000000     0.788310000000     0.118100000000    -0.276317   
O        O      0.577450000000     0.661300000000     0.205210000000    -0.276317   
O        O      0.417170000000     0.848270000000     0.457340000000    -0.276317   
O        O      0.549230000000     0.962690000000     0.385450000000    -0.276317   
O        O      0.175260000000     0.161240000000     0.156270000000    -0.276317   
O        O      0.248370000000     0.309150000000     0.210740000000    -0.276317   
O        O      0.583480000000     0.288310000000     0.381900000000    -0.276317   
O        O      0.577450000000     0.161300000000     0.294790000000    -0.276317   
O        O      0.417170000000     0.348270000000     0.042660000000    -0.276317   
O        O      0.549230000000     0.462690000000     0.114550000000    -0.276317   
O        O      0.824740000000     0.338760000000     0.656270000000    -0.276317   
O        O      0.751630000000     0.190850000000     0.710740000000    -0.276317   
O        O      0.416520000000     0.211690000000     0.881900000000    -0.276317   
O        O      0.422550000000     0.338700000000     0.794790000000    -0.276317   
O        O      0.582830000000     0.151730000000     0.542660000000    -0.276317   
O        O      0.450770000000     0.037310000000     0.614550000000    -0.276317   


