data_ODIXEG_original

_audit_creation_method RASPA-1.0
_audit_creation_date 2022-1-29
_audit_author_name 'Felipe Lopes de Oliveira <felipe.lopes.oliveira@ibm.com>'

_cell_length_a    12.706
_cell_length_b    12.706
_cell_length_c    23.817
_cell_angle_alpha 90
_cell_angle_beta  90
_cell_angle_gamma 90
_cell_volume      3845.07

_symmetry_cell_setting          triclinic
_symmetry_space_group_name_Hall 'P 1'
_symmetry_space_group_name_H-M  'P 1'
_symmetry_Int_Tables_number     1

_symmetry_equiv_pos_as_xyz 'x,y,z'

loop_
_atom_site_label
_atom_site_type_symbol
_atom_site_fract_x
_atom_site_fract_y
_atom_site_fract_z
_atom_site_charge
Zn       Zn     0.617580000000     0.000000000000     0.000000000000     0.449202   
Zn       Zn     0.382420000000     0.000000000000     0.000000000000     0.449202   
Zn       Zn     0.000000000000     0.617580000000     0.500000000000     0.449202   
Zn       Zn     0.000000000000     0.382420000000     0.500000000000     0.449202   
Si       Si     0.500000000000     0.500000000000     0.750000000000     0.82025    
Si       Si     0.500000000000     0.500000000000     0.250000000000     0.82025    
H        H      0.659100000000     0.633600000000     0.804400000000     0.0343924  
H        H      0.657600000000     0.764500000000     0.871400000000     0.0343924  
H        H      0.340900000000     0.366400000000     0.804400000000     0.0343924  
H        H      0.342400000000     0.235500000000     0.871400000000     0.0343924  
H        H      0.366400000000     0.659100000000     0.304400000000     0.0343924  
H        H      0.235500000000     0.657600000000     0.371400000000     0.0343924  
H        H      0.633600000000     0.340900000000     0.304400000000     0.0343924  
H        H      0.764500000000     0.342400000000     0.371400000000     0.0343924  
H        H      0.340900000000     0.633600000000     0.195600000000     0.0343924  
H        H      0.342400000000     0.764500000000     0.128600000000     0.0343924  
H        H      0.659100000000     0.366400000000     0.195600000000     0.0343924  
H        H      0.657600000000     0.235500000000     0.128600000000     0.0343924  
H        H      0.633600000000     0.659100000000     0.695600000000     0.0343924  
H        H      0.764500000000     0.657600000000     0.628600000000     0.0343924  
H        H      0.366400000000     0.340900000000     0.695600000000     0.0343924  
H        H      0.235500000000     0.342400000000     0.628600000000     0.0343924  
H        H      0.340900000000     0.366400000000     0.195600000000     0.0343924  
H        H      0.342400000000     0.235500000000     0.128600000000     0.0343924  
H        H      0.659100000000     0.633600000000     0.195600000000     0.0343924  
H        H      0.657600000000     0.764500000000     0.128600000000     0.0343924  
H        H      0.633600000000     0.340900000000     0.695600000000     0.0343924  
H        H      0.764500000000     0.342400000000     0.628600000000     0.0343924  
H        H      0.366400000000     0.659100000000     0.695600000000     0.0343924  
H        H      0.235500000000     0.657600000000     0.628600000000     0.0343924  
H        H      0.659100000000     0.366400000000     0.804400000000     0.0343924  
H        H      0.657600000000     0.235500000000     0.871400000000     0.0343924  
H        H      0.340900000000     0.633600000000     0.804400000000     0.0343924  
H        H      0.342400000000     0.764500000000     0.871400000000     0.0343924  
H        H      0.366400000000     0.340900000000     0.304400000000     0.0343924  
H        H      0.235500000000     0.342400000000     0.371400000000     0.0343924  
H        H      0.633600000000     0.659100000000     0.304400000000     0.0343924  
H        H      0.764500000000     0.657600000000     0.371400000000     0.0343924  
C        C      0.593690000000     0.659270000000     0.818070000000    -7.49186e-05
C        C      0.592770000000     0.736920000000     0.858120000000    -7.49186e-05
C        C      0.406310000000     0.340730000000     0.818070000000    -7.49186e-05
C        C      0.407230000000     0.263080000000     0.858120000000    -7.49186e-05
C        C      0.340730000000     0.593690000000     0.318070000000    -7.49186e-05
C        C      0.263080000000     0.592770000000     0.358120000000    -7.49186e-05
C        C      0.659270000000     0.406310000000     0.318070000000    -7.49186e-05
C        C      0.736920000000     0.407230000000     0.358120000000    -7.49186e-05
C        C      0.406310000000     0.659270000000     0.181930000000    -7.49186e-05
C        C      0.407230000000     0.736920000000     0.141880000000    -7.49186e-05
C        C      0.593690000000     0.340730000000     0.181930000000    -7.49186e-05
C        C      0.592770000000     0.263080000000     0.141880000000    -7.49186e-05
C        C      0.659270000000     0.593690000000     0.681930000000    -7.49186e-05
C        C      0.736920000000     0.592770000000     0.641880000000    -7.49186e-05
C        C      0.340730000000     0.406310000000     0.681930000000    -7.49186e-05
C        C      0.263080000000     0.407230000000     0.641880000000    -7.49186e-05
C        C      0.406310000000     0.340730000000     0.181930000000    -7.49186e-05
C        C      0.407230000000     0.263080000000     0.141880000000    -7.49186e-05
C        C      0.593690000000     0.659270000000     0.181930000000    -7.49186e-05
C        C      0.592770000000     0.736920000000     0.141880000000    -7.49186e-05
C        C      0.659270000000     0.406310000000     0.681930000000    -7.49186e-05
C        C      0.736920000000     0.407230000000     0.641880000000    -7.49186e-05
C        C      0.340730000000     0.593690000000     0.681930000000    -7.49186e-05
C        C      0.263080000000     0.592770000000     0.641880000000    -7.49186e-05
C        C      0.593690000000     0.340730000000     0.818070000000    -7.49186e-05
C        C      0.592770000000     0.263080000000     0.858120000000    -7.49186e-05
C        C      0.406310000000     0.659270000000     0.818070000000    -7.49186e-05
C        C      0.407230000000     0.736920000000     0.858120000000    -7.49186e-05
C        C      0.340730000000     0.406310000000     0.318070000000    -7.49186e-05
C        C      0.263080000000     0.407230000000     0.358120000000    -7.49186e-05
C        C      0.659270000000     0.593690000000     0.318070000000    -7.49186e-05
C        C      0.736920000000     0.592770000000     0.358120000000    -7.49186e-05
C        C      0.500000000000     0.617430000000     0.797110000000    -7.49186e-05
C        C      0.500000000000     0.775500000000     0.879390000000    -7.49186e-05
C        C      0.500000000000     0.858800000000     0.923640000000    -7.49186e-05
C        C      0.500000000000     0.382570000000     0.797110000000    -7.49186e-05
C        C      0.500000000000     0.224500000000     0.879390000000    -7.49186e-05
C        C      0.500000000000     0.141200000000     0.923640000000    -7.49186e-05
C        C      0.382570000000     0.500000000000     0.297110000000    -7.49186e-05
C        C      0.224500000000     0.500000000000     0.379390000000    -7.49186e-05
C        C      0.141200000000     0.500000000000     0.423640000000    -7.49186e-05
C        C      0.617430000000     0.500000000000     0.297110000000    -7.49186e-05
C        C      0.775500000000     0.500000000000     0.379390000000    -7.49186e-05
C        C      0.858800000000     0.500000000000     0.423640000000    -7.49186e-05
C        C      0.500000000000     0.617430000000     0.202890000000    -7.49186e-05
C        C      0.500000000000     0.775500000000     0.120610000000    -7.49186e-05
C        C      0.500000000000     0.858800000000     0.076360000000    -7.49186e-05
C        C      0.500000000000     0.382570000000     0.202890000000    -7.49186e-05
C        C      0.500000000000     0.224500000000     0.120610000000    -7.49186e-05
C        C      0.500000000000     0.141200000000     0.076360000000    -7.49186e-05
C        C      0.617430000000     0.500000000000     0.702890000000    -7.49186e-05
C        C      0.775500000000     0.500000000000     0.620610000000    -7.49186e-05
C        C      0.858800000000     0.500000000000     0.576360000000    -7.49186e-05
C        C      0.382570000000     0.500000000000     0.702890000000    -7.49186e-05
C        C      0.224500000000     0.500000000000     0.620610000000    -7.49186e-05
C        C      0.141200000000     0.500000000000     0.576360000000    -7.49186e-05
O        O      0.588490000000     0.889560000000     0.941400000000    -0.283354   
O        O      0.411510000000     0.110440000000     0.941400000000    -0.283354   
O        O      0.110440000000     0.588490000000     0.441400000000    -0.283354   
O        O      0.889560000000     0.411510000000     0.441400000000    -0.283354   
O        O      0.411510000000     0.889560000000     0.058600000000    -0.283354   
O        O      0.588490000000     0.110440000000     0.058600000000    -0.283354   
O        O      0.889560000000     0.588490000000     0.558600000000    -0.283354   
O        O      0.110440000000     0.411510000000     0.558600000000    -0.283354   
O        O      0.411510000000     0.110440000000     0.058600000000    -0.283354   
O        O      0.588490000000     0.889560000000     0.058600000000    -0.283354   
O        O      0.889560000000     0.411510000000     0.558600000000    -0.283354   
O        O      0.110440000000     0.588490000000     0.558600000000    -0.283354   
O        O      0.588490000000     0.110440000000     0.941400000000    -0.283354   
O        O      0.411510000000     0.889560000000     0.941400000000    -0.283354   
O        O      0.110440000000     0.411510000000     0.441400000000    -0.283354   
O        O      0.889560000000     0.588490000000     0.441400000000    -0.283354   


