data_ODODIW_original

_audit_creation_method RASPA-1.0
_audit_creation_date 2022-1-30
_audit_author_name 'Felipe Lopes de Oliveira <felipe.lopes.oliveira@ibm.com>'

_cell_length_a    13.935
_cell_length_b    14.196
_cell_length_c    14.6708
_cell_angle_alpha 107.988
_cell_angle_beta  113.735
_cell_angle_gamma 100.298
_cell_volume      2368.84

_symmetry_cell_setting          triclinic
_symmetry_space_group_name_Hall 'P 1'
_symmetry_space_group_name_H-M  'P 1'
_symmetry_Int_Tables_number     1

_symmetry_equiv_pos_as_xyz 'x,y,z'

loop_
_atom_site_label
_atom_site_type_symbol
_atom_site_fract_x
_atom_site_fract_y
_atom_site_fract_z
_atom_site_charge
Zn       Zn     0.471250000000     0.796710000000     0.556550000000     0.458451   
Zn       Zn     0.696700000000     0.004160000000     0.735800000000     0.458451   
Zn       Zn     0.528750000000     0.203290000000     0.443450000000     0.458451   
Zn       Zn     0.303300000000     0.995840000000     0.264200000000     0.458451   
Zn       Zn     0.500000000000     0.000000000000     0.500000000000     0.458451   
Si       Si     0.763830000000     0.634310000000     0.120000000000     0.785879   
Si       Si     0.236170000000     0.365690000000     0.880000000000     0.785879   
H        H      0.114300000000     0.758800000000     0.458500000000     0.0444779  
H        H      0.920800000000     0.691500000000     0.346000000000     0.0444779  
H        H      0.960200000000     0.707700000000     0.091100000000     0.0444779  
H        H      0.151700000000     0.781400000000     0.204600000000     0.0444779  
H        H      0.526700000000     0.616400000000     0.755700000000     0.0444779  
H        H      0.589100000000     0.550700000000     0.887300000000     0.0444779  
H        H      0.833800000000     0.832800000000     0.103800000000     0.0444779  
H        H      0.782200000000     0.895200000000     0.969000000000     0.0444779  
H        H      0.521500000000     0.258100000000     0.917800000000     0.0444779  
H        H      0.561700000000     0.439300000000     0.011200000000     0.0444779  
H        H      0.883600000000     0.497000000000     0.079300000000     0.0444779  
H        H      0.840900000000     0.317800000000     0.978100000000     0.0444779  
H        H      0.570900000000     0.614700000000     0.336900000000     0.0444779  
H        H      0.642100000000     0.544500000000     0.222100000000     0.0444779  
H        H      0.745400000000     0.831100000000     0.223900000000     0.0444779  
H        H      0.677400000000     0.900200000000     0.338800000000     0.0444779  
H        H      0.519000000000     0.987000000000     0.683000000000     0.0444779  
H        H      0.885700000000     0.241200000000     0.541500000000     0.0444779  
H        H      0.079200000000     0.308500000000     0.654000000000     0.0444779  
H        H      0.039800000000     0.292300000000     0.908900000000     0.0444779  
H        H      0.848300000000     0.218600000000     0.795400000000     0.0444779  
H        H      0.473300000000     0.383600000000     0.244300000000     0.0444779  
H        H      0.410900000000     0.449300000000     0.112700000000     0.0444779  
H        H      0.166200000000     0.167200000000     0.896200000000     0.0444779  
H        H      0.217800000000     0.104800000000     0.031000000000     0.0444779  
H        H      0.478500000000     0.741900000000     0.082200000000     0.0444779  
H        H      0.438300000000     0.560700000000     0.988800000000     0.0444779  
H        H      0.116400000000     0.503000000000     0.920700000000     0.0444779  
H        H      0.159100000000     0.682200000000     0.021900000000     0.0444779  
H        H      0.429100000000     0.385300000000     0.663100000000     0.0444779  
H        H      0.357900000000     0.455500000000     0.777900000000     0.0444779  
H        H      0.254600000000     0.168900000000     0.776100000000     0.0444779  
H        H      0.322600000000     0.099800000000     0.661200000000     0.0444779  
H        H      0.481000000000     0.013000000000     0.317000000000     0.0444779  
C        C      0.277500000000     0.815700000000     0.412800000000     0.000218912
C        C      0.154000000000     0.775800000000     0.342800000000     0.000218912
C        C      0.083200000000     0.749500000000     0.384200000000     0.000218912
C        C      0.967500000000     0.709800000000     0.317000000000     0.000218912
C        C      0.919400000000     0.696400000000     0.208800000000     0.000218912
C        C      0.991200000000     0.720400000000     0.166300000000     0.000218912
C        C      0.105100000000     0.761800000000     0.233200000000     0.000218912
C        C      0.616100000000     0.806200000000     0.764500000000     0.000218912
C        C      0.648900000000     0.763000000000     0.850300000000     0.000218912
C        C      0.590500000000     0.659800000000     0.825700000000     0.000218912
C        C      0.626900000000     0.621800000000     0.905000000000     0.000218912
C        C      0.717900000000     0.685000000000     0.010700000000     0.000218912
C        C      0.772800000000     0.787700000000     0.032500000000     0.000218912
C        C      0.741000000000     0.825800000000     0.953100000000     0.000218912
C        C      0.648200000000     0.157600000000     0.864700000000     0.000218912
C        C      0.676500000000     0.270500000000     0.934400000000     0.000218912
C        C      0.594300000000     0.306700000000     0.947700000000     0.000218912
C        C      0.619100000000     0.415000000000     0.005300000000     0.000218912
C        C      0.727500000000     0.488300000000     0.054500000000     0.000218912
C        C      0.809100000000     0.449600000000     0.044600000000     0.000218912
C        C      0.783700000000     0.342100000000     0.984600000000     0.000218912
C        C      0.570700000000     0.812000000000     0.421200000000     0.000218912
C        C      0.617200000000     0.765000000000     0.349000000000     0.000218912
C        C      0.606600000000     0.658600000000     0.314000000000     0.000218912
C        C      0.648800000000     0.616800000000     0.245000000000     0.000218912
C        C      0.700500000000     0.679300000000     0.209100000000     0.000218912
C        C      0.710100000000     0.786500000000     0.246500000000     0.000218912
C        C      0.669500000000     0.827600000000     0.314700000000     0.000218912
C        C      0.722500000000     0.184300000000     0.587200000000     0.000218912
C        C      0.846000000000     0.224200000000     0.657200000000     0.000218912
C        C      0.916800000000     0.250500000000     0.615800000000     0.000218912
C        C      0.032500000000     0.290200000000     0.683000000000     0.000218912
C        C      0.080600000000     0.303600000000     0.791200000000     0.000218912
C        C      0.008800000000     0.279600000000     0.833700000000     0.000218912
C        C      0.894900000000     0.238200000000     0.766800000000     0.000218912
C        C      0.383900000000     0.193800000000     0.235500000000     0.000218912
C        C      0.351100000000     0.237000000000     0.149700000000     0.000218912
C        C      0.409500000000     0.340200000000     0.174300000000     0.000218912
C        C      0.373100000000     0.378200000000     0.095000000000     0.000218912
C        C      0.282100000000     0.315000000000     0.989300000000     0.000218912
C        C      0.227200000000     0.212300000000     0.967500000000     0.000218912
C        C      0.259000000000     0.174200000000     0.046900000000     0.000218912
C        C      0.351800000000     0.842400000000     0.135300000000     0.000218912
C        C      0.323500000000     0.729500000000     0.065600000000     0.000218912
C        C      0.405700000000     0.693300000000     0.052300000000     0.000218912
C        C      0.380900000000     0.585000000000     0.994700000000     0.000218912
C        C      0.272500000000     0.511700000000     0.945500000000     0.000218912
C        C      0.190900000000     0.550400000000     0.955400000000     0.000218912
C        C      0.216300000000     0.657900000000     0.015400000000     0.000218912
C        C      0.429300000000     0.188000000000     0.578800000000     0.000218912
C        C      0.382800000000     0.235000000000     0.651000000000     0.000218912
C        C      0.393400000000     0.341400000000     0.686000000000     0.000218912
C        C      0.351200000000     0.383200000000     0.755000000000     0.000218912
C        C      0.299500000000     0.320700000000     0.790900000000     0.000218912
C        C      0.289900000000     0.213500000000     0.753500000000     0.000218912
C        C      0.330500000000     0.172400000000     0.685300000000     0.000218912
O        O      0.314300000000     0.780500000000     0.486600000000    -0.299362   
O        O      0.336200000000     0.877300000000     0.395000000000    -0.299362   
O        O      0.687700000000     0.889500000000     0.786100000000    -0.299362   
O        O      0.524900000000     0.755700000000     0.678900000000    -0.299362   
O        O      0.729600000000     0.135800000000     0.851200000000    -0.299362   
O        O      0.552300000000     0.092800000000     0.822200000000    -0.299362   
O        O      0.534900000000     0.756600000000     0.460500000000    -0.299362   
O        O      0.573000000000     0.904900000000     0.437400000000    -0.299362   
O        O      0.535800000000     0.955100000000     0.625600000000    -0.299362   
O        O      0.685700000000     0.219500000000     0.513400000000    -0.299362   
O        O      0.663800000000     0.122700000000     0.605000000000    -0.299362   
O        O      0.312300000000     0.110500000000     0.213900000000    -0.299362   
O        O      0.475100000000     0.244300000000     0.321100000000    -0.299362   
O        O      0.270400000000     0.864200000000     0.148800000000    -0.299362   
O        O      0.447700000000     0.907200000000     0.177800000000    -0.299362   
O        O      0.465100000000     0.243400000000     0.539500000000    -0.299362   
O        O      0.427000000000     0.095100000000     0.562600000000    -0.299362   
O        O      0.464200000000     0.044900000000     0.374400000000    -0.299362   


