data_OFERUN02_original

_audit_creation_method RASPA-1.0
_audit_creation_date 2022-1-31
_audit_author_name 'Felipe Lopes de Oliveira <felipe.lopes.oliveira@ibm.com>'

_cell_length_a    14.7269
_cell_length_b    14.7269
_cell_length_c    14.7269
_cell_angle_alpha 109.471
_cell_angle_beta  109.471
_cell_angle_gamma 109.471
_cell_volume      2458.76

_symmetry_cell_setting          triclinic
_symmetry_space_group_name_Hall 'P 1'
_symmetry_space_group_name_H-M  'P 1'
_symmetry_Int_Tables_number     1

_symmetry_equiv_pos_as_xyz 'x,y,z'

loop_
_atom_site_label
_atom_site_type_symbol
_atom_site_fract_x
_atom_site_fract_y
_atom_site_fract_z
_atom_site_charge
Zn       Zn     0.750000000000     0.500000000000     0.250000000000     0.334208   
Zn       Zn     0.250000000000     0.500000000000     0.750000000000     0.334208   
Zn       Zn     0.250000000000     0.750000000000     0.500000000000     0.334208   
Zn       Zn     0.750000000000     0.250000000000     0.500000000000     0.334208   
Zn       Zn     0.500000000000     0.750000000000     0.250000000000     0.334208   
Zn       Zn     0.500000000000     0.250000000000     0.750000000000     0.334208   
H        H      0.639560000000     0.522940000000     0.419010000000     0.0459431  
H        H      0.103930000000     0.220550000000     0.580990000000     0.0459431  
H        H      0.896070000000     0.477060000000     0.116620000000     0.0459431  
H        H      0.360440000000     0.779450000000     0.883380000000     0.0459431  
H        H      0.116620000000     0.896070000000     0.477060000000     0.0459431  
H        H      0.883380000000     0.360440000000     0.779450000000     0.0459431  
H        H      0.419010000000     0.639560000000     0.522940000000     0.0459431  
H        H      0.580990000000     0.103930000000     0.220550000000     0.0459431  
H        H      0.220550000000     0.580990000000     0.103930000000     0.0459431  
H        H      0.522940000000     0.419010000000     0.639560000000     0.0459431  
H        H      0.779450000000     0.883380000000     0.360440000000     0.0459431  
H        H      0.477060000000     0.116620000000     0.896070000000     0.0459431  
H        H      0.220550000000     0.103930000000     0.580990000000     0.0459431  
H        H      0.522940000000     0.639560000000     0.419010000000     0.0459431  
H        H      0.779450000000     0.360440000000     0.883380000000     0.0459431  
H        H      0.477060000000     0.896070000000     0.116620000000     0.0459431  
H        H      0.639560000000     0.419010000000     0.522940000000     0.0459431  
H        H      0.103930000000     0.580990000000     0.220550000000     0.0459431  
H        H      0.896070000000     0.116620000000     0.477060000000     0.0459431  
H        H      0.360440000000     0.883380000000     0.779450000000     0.0459431  
H        H      0.116620000000     0.477060000000     0.896070000000     0.0459431  
H        H      0.883380000000     0.779450000000     0.360440000000     0.0459431  
H        H      0.419010000000     0.522940000000     0.639560000000     0.0459431  
H        H      0.796700000000     0.322180000000     0.241440000000     0.0459431  
H        H      0.785750000000     0.235440000000     0.309020000000     0.0459431  
H        H      0.909330000000     0.376720000000     0.383880000000     0.0459431  
H        H      0.913570000000     0.473400000000     0.662940000000     0.0459431  
H        H      0.023490000000     0.540460000000     0.633650000000     0.0459431  
H        H      0.062940000000     0.543570000000     0.769070000000     0.0459431  
H        H      0.911060000000     0.650950000000     0.473690000000     0.0459431  
H        H      0.052170000000     0.770730000000     0.537170000000     0.0459431  
H        H      0.036770000000     0.643980000000     0.546570000000     0.0459431  
H        H      0.214250000000     0.449690000000     0.523280000000     0.0459431  
H        H      0.203300000000     0.525480000000     0.444740000000     0.0459431  
H        H      0.090670000000     0.467400000000     0.474550000000     0.0459431  
H        H      0.538880000000     0.020150000000     0.631330000000     0.0459431  
H        H      0.473500000000     0.914510000000     0.665970000000     0.0459431  
H        H      0.545040000000     0.065340000000     0.768360000000     0.0459431  
H        H      0.476240000000     0.090960000000     0.465780000000     0.0459431  
H        H      0.522610000000     0.216640000000     0.450960000000     0.0459431  
H        H      0.443720000000     0.200630000000     0.525830000000     0.0459431  
H        H      0.229280000000     0.762220000000     0.274040000000     0.0459431  
H        H      0.356070000000     0.830510000000     0.266690000000     0.0459431  
H        H      0.348990000000     0.899040000000     0.393610000000     0.0459431  
H        H      0.762020000000     0.077140000000     0.552700000000     0.0459431  
H        H      0.683890000000     0.922320000000     0.475400000000     0.0459431  
H        H      0.619750000000     0.000540000000     0.529330000000     0.0459431  
H        H      0.477390000000     0.694030000000     0.928350000000     0.0459431  
H        H      0.523760000000     0.614720000000     0.989550000000     0.0459431  
H        H      0.556270000000     0.756910000000     0.082100000000     0.0459431  
H        H      0.316110000000     0.238430000000     0.791510000000     0.0459431  
H        H      0.237980000000     0.315120000000     0.790690000000     0.0459431  
H        H      0.380250000000     0.380790000000     0.909580000000     0.0459431  
H        H      0.526500000000     0.441000000000     0.192470000000     0.0459431  
H        H      0.461120000000     0.481270000000     0.092450000000     0.0459431  
H        H      0.454950000000     0.520290000000     0.223310000000     0.0459431  
H        H      0.643930000000     0.474440000000     0.910620000000     0.0459431  
H        H      0.770720000000     0.532940000000     0.044770000000     0.0459431  
H        H      0.651010000000     0.550040000000     0.044620000000     0.0459431  
C        C      0.677990000000     0.467150000000     0.410620000000    -0.010182   
C        C      0.056530000000     0.267370000000     0.589380000000    -0.010182   
C        C      0.943470000000     0.532850000000     0.210840000000    -0.010182   
C        C      0.322010000000     0.732630000000     0.789160000000    -0.010182   
C        C      0.210840000000     0.943470000000     0.532850000000    -0.010182   
C        C      0.789160000000     0.322010000000     0.732630000000    -0.010182   
C        C      0.410620000000     0.677990000000     0.467150000000    -0.010182   
C        C      0.589380000000     0.056530000000     0.267370000000    -0.010182   
C        C      0.267370000000     0.589380000000     0.056530000000    -0.010182   
C        C      0.467150000000     0.410620000000     0.677990000000    -0.010182   
C        C      0.732630000000     0.789160000000     0.322010000000    -0.010182   
C        C      0.532850000000     0.210840000000     0.943470000000    -0.010182   
C        C      0.267370000000     0.056530000000     0.589380000000    -0.010182   
C        C      0.467150000000     0.677990000000     0.410620000000    -0.010182   
C        C      0.732630000000     0.322010000000     0.789160000000    -0.010182   
C        C      0.532850000000     0.943470000000     0.210840000000    -0.010182   
C        C      0.677990000000     0.410620000000     0.467150000000    -0.010182   
C        C      0.056530000000     0.589380000000     0.267370000000    -0.010182   
C        C      0.943470000000     0.210840000000     0.532850000000    -0.010182   
C        C      0.322010000000     0.789160000000     0.732630000000    -0.010182   
C        C      0.210840000000     0.532850000000     0.943470000000    -0.010182   
C        C      0.789160000000     0.732630000000     0.322010000000    -0.010182   
C        C      0.410620000000     0.467150000000     0.677990000000    -0.010182   
C        C      0.589380000000     0.267370000000     0.056530000000    -0.010182   
C        C      0.815800000000     0.323800000000     0.323800000000    -0.010182   
C        C      0.757660000000     0.372360000000     0.372360000000    -0.010182   
C        C      0.000000000000     0.492000000000     0.676200000000    -0.010182   
C        C      0.000000000000     0.385300000000     0.627640000000    -0.010182   
C        C      0.000000000000     0.676200000000     0.492000000000    -0.010182   
C        C      0.000000000000     0.627640000000     0.385300000000    -0.010182   
C        C      0.184200000000     0.508000000000     0.508000000000    -0.010182   
C        C      0.242340000000     0.614700000000     0.614700000000    -0.010182   
C        C      0.492000000000     0.000000000000     0.676200000000    -0.010182   
C        C      0.385300000000     0.000000000000     0.627640000000    -0.010182   
C        C      0.508000000000     0.184200000000     0.508000000000    -0.010182   
C        C      0.614700000000     0.242340000000     0.614700000000    -0.010182   
C        C      0.323800000000     0.815800000000     0.323800000000    -0.010182   
C        C      0.372360000000     0.757660000000     0.372360000000    -0.010182   
C        C      0.676200000000     0.000000000000     0.492000000000    -0.010182   
C        C      0.627640000000     0.000000000000     0.385300000000    -0.010182   
C        C      0.492000000000     0.676200000000     0.000000000000    -0.010182   
C        C      0.385300000000     0.627640000000     0.000000000000    -0.010182   
C        C      0.323800000000     0.323800000000     0.815800000000    -0.010182   
C        C      0.372360000000     0.372360000000     0.757660000000    -0.010182   
C        C      0.508000000000     0.508000000000     0.184200000000    -0.010182   
C        C      0.614700000000     0.614700000000     0.242340000000    -0.010182   
C        C      0.676200000000     0.492000000000     0.000000000000    -0.010182   
C        C      0.627640000000     0.385300000000     0.000000000000    -0.010182   
N        N      0.728540000000     0.442960000000     0.350380000000    -0.176132   
N        N      0.092580000000     0.378160000000     0.649620000000    -0.176132   
N        N      0.907420000000     0.557040000000     0.285580000000    -0.176132   
N        N      0.271460000000     0.621840000000     0.714420000000    -0.176132   
N        N      0.285580000000     0.907420000000     0.557040000000    -0.176132   
N        N      0.714420000000     0.271460000000     0.621840000000    -0.176132   
N        N      0.350380000000     0.728540000000     0.442960000000    -0.176132   
N        N      0.649620000000     0.092580000000     0.378160000000    -0.176132   
N        N      0.378160000000     0.649620000000     0.092580000000    -0.176132   
N        N      0.442960000000     0.350380000000     0.728540000000    -0.176132   
N        N      0.621840000000     0.714420000000     0.271460000000    -0.176132   
N        N      0.557040000000     0.285580000000     0.907420000000    -0.176132   
N        N      0.378160000000     0.092580000000     0.649620000000    -0.176132   
N        N      0.442960000000     0.728540000000     0.350380000000    -0.176132   
N        N      0.621840000000     0.271460000000     0.714420000000    -0.176132   
N        N      0.557040000000     0.907420000000     0.285580000000    -0.176132   
N        N      0.728540000000     0.350380000000     0.442960000000    -0.176132   
N        N      0.092580000000     0.649620000000     0.378160000000    -0.176132   
N        N      0.907420000000     0.285580000000     0.557040000000    -0.176132   
N        N      0.271460000000     0.714420000000     0.621840000000    -0.176132   
N        N      0.285580000000     0.557040000000     0.907420000000    -0.176132   
N        N      0.714420000000     0.621840000000     0.271460000000    -0.176132   
N        N      0.350380000000     0.442960000000     0.728540000000    -0.176132   
N        N      0.649620000000     0.378160000000     0.092580000000    -0.176132   


