data_OGAGEJ_original

_audit_creation_method RASPA-1.0
_audit_creation_date 2022-1-31
_audit_author_name 'Felipe Lopes de Oliveira <felipe.lopes.oliveira@ibm.com>'

_cell_length_a    10.334
_cell_length_b    11.5451
_cell_length_c    28.4469
_cell_angle_alpha 90
_cell_angle_beta  90
_cell_angle_gamma 115.309
_cell_volume      3068.15

_symmetry_cell_setting          triclinic
_symmetry_space_group_name_Hall 'P 1'
_symmetry_space_group_name_H-M  'P 1'
_symmetry_Int_Tables_number     1

_symmetry_equiv_pos_as_xyz 'x,y,z'

loop_
_atom_site_label
_atom_site_type_symbol
_atom_site_fract_x
_atom_site_fract_y
_atom_site_fract_z
_atom_site_charge
Zn       Zn     0.090270000000     0.007670000000     0.937670000000     0.448524   
Zn       Zn     0.330540000000     0.334250000000     0.522060000000     0.448524   
Zn       Zn     0.909730000000     0.492330000000     0.437670000000     0.448524   
Zn       Zn     0.669460000000     0.165750000000     0.022060000000     0.448524   
Zn       Zn     0.909730000000     0.992330000000     0.062330000000     0.448524   
Zn       Zn     0.669460000000     0.665750000000     0.477940000000     0.448524   
Zn       Zn     0.090270000000     0.507670000000     0.562330000000     0.448524   
Zn       Zn     0.330540000000     0.834250000000     0.977940000000     0.448524   
P        P      0.405770000000     0.122970000000     0.954890000000     0.4165     
P        P      0.064150000000     0.830370000000     0.022870000000     0.4165     
P        P      0.594230000000     0.377030000000     0.454890000000     0.4165     
P        P      0.935850000000     0.669630000000     0.522870000000     0.4165     
P        P      0.594230000000     0.877030000000     0.045110000000     0.4165     
P        P      0.935850000000     0.169630000000     0.977130000000     0.4165     
P        P      0.405770000000     0.622970000000     0.545110000000     0.4165     
P        P      0.064150000000     0.330370000000     0.477130000000     0.4165     
H        H      0.929200000000     0.032700000000     0.857100000000     0.0520972  
H        H      0.906700000000     0.000600000000     0.777200000000     0.0520972  
H        H      0.221400000000     0.880700000000     0.782800000000     0.0520972  
H        H      0.238600000000     0.919200000000     0.862800000000     0.0520972  
H        H      0.944700000000     0.863300000000     0.710800000000     0.0520972  
H        H      0.074800000000     0.000400000000     0.702600000000     0.0520972  
H        H      0.237200000000     0.907800000000     0.700800000000     0.0520972  
H        H      0.111200000000     0.770000000000     0.712500000000     0.0520972  
H        H      0.151600000000     0.774300000000     0.631800000000     0.0520972  
H        H      0.999300000000     0.777200000000     0.638600000000     0.0520972  
H        H      0.968800000000     0.970200000000     0.615100000000     0.0520972  
H        H      0.053800000000     0.158300000000     0.572600000000     0.0520972  
H        H      0.432200000000     0.154900000000     0.560100000000     0.0520972  
H        H      0.358900000000     0.970800000000     0.604400000000     0.0520972  
H        H      0.477490000000     0.194200000000     0.920600000000     0.0520972  
H        H      0.965720000000     0.727300000000     0.034540000000     0.0520972  
H        H      0.070800000000     0.467300000000     0.357100000000     0.0520972  
H        H      0.093300000000     0.499400000000     0.277200000000     0.0520972  
H        H      0.778600000000     0.619300000000     0.282800000000     0.0520972  
H        H      0.761400000000     0.580800000000     0.362800000000     0.0520972  
H        H      0.055300000000     0.636700000000     0.210800000000     0.0520972  
H        H      0.925200000000     0.499600000000     0.202600000000     0.0520972  
H        H      0.762800000000     0.592200000000     0.200800000000     0.0520972  
H        H      0.888800000000     0.730000000000     0.212500000000     0.0520972  
H        H      0.848400000000     0.725700000000     0.131800000000     0.0520972  
H        H      0.000700000000     0.722800000000     0.138600000000     0.0520972  
H        H      0.031200000000     0.529800000000     0.115100000000     0.0520972  
H        H      0.946200000000     0.341700000000     0.072600000000     0.0520972  
H        H      0.567800000000     0.345100000000     0.060100000000     0.0520972  
H        H      0.641100000000     0.529200000000     0.104400000000     0.0520972  
H        H      0.522510000000     0.305800000000     0.420600000000     0.0520972  
H        H      0.034280000000     0.772700000000     0.534540000000     0.0520972  
H        H      0.070800000000     0.967300000000     0.142900000000     0.0520972  
H        H      0.093300000000     0.999400000000     0.222800000000     0.0520972  
H        H      0.778600000000     0.119300000000     0.217200000000     0.0520972  
H        H      0.761400000000     0.080800000000     0.137200000000     0.0520972  
H        H      0.055300000000     0.136700000000     0.289200000000     0.0520972  
H        H      0.925200000000     0.999600000000     0.297400000000     0.0520972  
H        H      0.762800000000     0.092200000000     0.299200000000     0.0520972  
H        H      0.888800000000     0.230000000000     0.287500000000     0.0520972  
H        H      0.848400000000     0.225700000000     0.368200000000     0.0520972  
H        H      0.000700000000     0.222800000000     0.361400000000     0.0520972  
H        H      0.031200000000     0.029800000000     0.384900000000     0.0520972  
H        H      0.946200000000     0.841700000000     0.427400000000     0.0520972  
H        H      0.567800000000     0.845100000000     0.439900000000     0.0520972  
H        H      0.641100000000     0.029200000000     0.395600000000     0.0520972  
H        H      0.522510000000     0.805800000000     0.079400000000     0.0520972  
H        H      0.034280000000     0.272700000000     0.965460000000     0.0520972  
H        H      0.929200000000     0.532700000000     0.642900000000     0.0520972  
H        H      0.906700000000     0.500600000000     0.722800000000     0.0520972  
H        H      0.221400000000     0.380700000000     0.717200000000     0.0520972  
H        H      0.238600000000     0.419200000000     0.637200000000     0.0520972  
H        H      0.944700000000     0.363300000000     0.789200000000     0.0520972  
H        H      0.074800000000     0.500400000000     0.797400000000     0.0520972  
H        H      0.237200000000     0.407800000000     0.799200000000     0.0520972  
H        H      0.111200000000     0.270000000000     0.787500000000     0.0520972  
H        H      0.151600000000     0.274300000000     0.868200000000     0.0520972  
H        H      0.999300000000     0.277200000000     0.861400000000     0.0520972  
H        H      0.968800000000     0.470200000000     0.884900000000     0.0520972  
H        H      0.053800000000     0.658300000000     0.927400000000     0.0520972  
H        H      0.432200000000     0.654900000000     0.939900000000     0.0520972  
H        H      0.358900000000     0.470800000000     0.895600000000     0.0520972  
H        H      0.477490000000     0.694200000000     0.579400000000     0.0520972  
H        H      0.965720000000     0.227300000000     0.465460000000     0.0520972  
C        C      0.989730000000     0.001830000000     0.841670000000    -0.0384197  
C        C      0.975490000000     0.982730000000     0.794010000000    -0.0384197  
C        C      0.062540000000     0.936930000000     0.770350000000    -0.0384197  
C        C      0.160610000000     0.912810000000     0.797320000000    -0.0384197  
C        C      0.169890000000     0.935270000000     0.845130000000    -0.0384197  
C        C      0.047010000000     0.916210000000     0.717970000000    -0.0384197  
C        C      0.134010000000     0.852260000000     0.696210000000    -0.0384197  
C        C      0.103690000000     0.826890000000     0.643400000000    -0.0384197  
C        C      0.154540000000     0.948430000000     0.615050000000    -0.0384197  
C        C      0.065280000000     0.007350000000     0.604520000000    -0.0384197  
C        C      0.116170000000     0.119040000000     0.578880000000    -0.0384197  
C        C      0.337070000000     0.117440000000     0.571920000000    -0.0384197  
C        C      0.293690000000     0.006980000000     0.598040000000    -0.0384197  
C        C      0.010270000000     0.498170000000     0.341670000000    -0.0384197  
C        C      0.024510000000     0.517270000000     0.294010000000    -0.0384197  
C        C      0.937460000000     0.563070000000     0.270350000000    -0.0384197  
C        C      0.839390000000     0.587190000000     0.297320000000    -0.0384197  
C        C      0.830110000000     0.564730000000     0.345130000000    -0.0384197  
C        C      0.952990000000     0.583790000000     0.217970000000    -0.0384197  
C        C      0.865990000000     0.647740000000     0.196210000000    -0.0384197  
C        C      0.896310000000     0.673110000000     0.143400000000    -0.0384197  
C        C      0.845460000000     0.551570000000     0.115050000000    -0.0384197  
C        C      0.934720000000     0.492650000000     0.104520000000    -0.0384197  
C        C      0.883830000000     0.380960000000     0.078880000000    -0.0384197  
C        C      0.662930000000     0.382560000000     0.071920000000    -0.0384197  
C        C      0.706310000000     0.493020000000     0.098040000000    -0.0384197  
C        C      0.010270000000     0.998170000000     0.158330000000    -0.0384197  
C        C      0.024510000000     0.017270000000     0.205990000000    -0.0384197  
C        C      0.937460000000     0.063070000000     0.229650000000    -0.0384197  
C        C      0.839390000000     0.087190000000     0.202680000000    -0.0384197  
C        C      0.830110000000     0.064730000000     0.154870000000    -0.0384197  
C        C      0.952990000000     0.083790000000     0.282030000000    -0.0384197  
C        C      0.865990000000     0.147740000000     0.303790000000    -0.0384197  
C        C      0.896310000000     0.173110000000     0.356600000000    -0.0384197  
C        C      0.845460000000     0.051570000000     0.384950000000    -0.0384197  
C        C      0.934720000000     0.992650000000     0.395480000000    -0.0384197  
C        C      0.883830000000     0.880960000000     0.421120000000    -0.0384197  
C        C      0.662930000000     0.882560000000     0.428080000000    -0.0384197  
C        C      0.706310000000     0.993020000000     0.401960000000    -0.0384197  
C        C      0.989730000000     0.501830000000     0.658330000000    -0.0384197  
C        C      0.975490000000     0.482730000000     0.705990000000    -0.0384197  
C        C      0.062540000000     0.436930000000     0.729650000000    -0.0384197  
C        C      0.160610000000     0.412810000000     0.702680000000    -0.0384197  
C        C      0.169890000000     0.435270000000     0.654870000000    -0.0384197  
C        C      0.047010000000     0.416210000000     0.782030000000    -0.0384197  
C        C      0.134010000000     0.352260000000     0.803790000000    -0.0384197  
C        C      0.103690000000     0.326890000000     0.856600000000    -0.0384197  
C        C      0.154540000000     0.448430000000     0.884950000000    -0.0384197  
C        C      0.065280000000     0.507350000000     0.895480000000    -0.0384197  
C        C      0.116170000000     0.619040000000     0.921120000000    -0.0384197  
C        C      0.337070000000     0.617440000000     0.928080000000    -0.0384197  
C        C      0.293690000000     0.506980000000     0.901960000000    -0.0384197  
N        N      0.085390000000     0.978990000000     0.867670000000    -0.181208   
N        N      0.250980000000     0.174960000000     0.562290000000    -0.181208   
N        N      0.914610000000     0.521010000000     0.367670000000    -0.181208   
N        N      0.749020000000     0.325040000000     0.062290000000    -0.181208   
N        N      0.914610000000     0.021010000000     0.132330000000    -0.181208   
N        N      0.749020000000     0.825040000000     0.437710000000    -0.181208   
N        N      0.085390000000     0.478990000000     0.632330000000    -0.181208   
N        N      0.250980000000     0.674960000000     0.937710000000    -0.181208   
O        O      0.371100000000     0.986030000000     0.941250000000    -0.283622   
O        O      0.269720000000     0.143890000000     0.959950000000    -0.283622   
O        O      0.043900000000     0.848960000000     0.971040000000    -0.283622   
O        O      0.204110000000     0.818160000000     0.031210000000    -0.283622   
O        O      0.056710000000     0.931970000000     0.054920000000    -0.283622   
O        O      0.497280000000     0.171100000000     0.998380000000    -0.283622   
O        O      0.628900000000     0.513970000000     0.441250000000    -0.283622   
O        O      0.730280000000     0.356110000000     0.459950000000    -0.283622   
O        O      0.956100000000     0.651040000000     0.471040000000    -0.283622   
O        O      0.795890000000     0.681840000000     0.531210000000    -0.283622   
O        O      0.943290000000     0.568030000000     0.554920000000    -0.283622   
O        O      0.502720000000     0.328900000000     0.498380000000    -0.283622   
O        O      0.628900000000     0.013970000000     0.058750000000    -0.283622   
O        O      0.730280000000     0.856110000000     0.040050000000    -0.283622   
O        O      0.956100000000     0.151040000000     0.028960000000    -0.283622   
O        O      0.795890000000     0.181840000000     0.968790000000    -0.283622   
O        O      0.943290000000     0.068030000000     0.945080000000    -0.283622   
O        O      0.502720000000     0.828900000000     0.001620000000    -0.283622   
O        O      0.371100000000     0.486030000000     0.558750000000    -0.283622   
O        O      0.269720000000     0.643890000000     0.540050000000    -0.283622   
O        O      0.043900000000     0.348960000000     0.528960000000    -0.283622   
O        O      0.204110000000     0.318160000000     0.468790000000    -0.283622   
O        O      0.056710000000     0.431970000000     0.445080000000    -0.283622   
O        O      0.497280000000     0.671100000000     0.501620000000    -0.283622   


