data_OSAWEL_original

_audit_creation_method RASPA-1.0
_audit_creation_date 2022-1-30
_audit_author_name 'Felipe Lopes de Oliveira <felipe.lopes.oliveira@ibm.com>'

_cell_length_a    8.3328
_cell_length_b    8.6794
_cell_length_c    9.9393
_cell_angle_alpha 70.52
_cell_angle_beta  84.459
_cell_angle_gamma 73.722
_cell_volume      650.528

_symmetry_cell_setting          triclinic
_symmetry_space_group_name_Hall 'P 1'
_symmetry_space_group_name_H-M  'P 1'
_symmetry_Int_Tables_number     1

_symmetry_equiv_pos_as_xyz 'x,y,z'

loop_
_atom_site_label
_atom_site_type_symbol
_atom_site_fract_x
_atom_site_fract_y
_atom_site_fract_z
_atom_site_charge
Ca       Ca     0.326480000000     0.363370000000     0.042490000000     1.4476     
Ca       Ca     0.673520000000     0.636630000000     0.957510000000     1.4476     
H        H      0.223900000000     0.442600000000     0.354200000000     0.177161   
H        H      0.675800000000     0.557600000000     0.333200000000     0.177161   
H        H      0.654500000000     0.976600000000     0.920700000000     0.177161   
H        H      0.955100000000     0.264900000000     0.025100000000     0.177161   
H        H      0.776100000000     0.557400000000     0.645800000000     0.177161   
H        H      0.324200000000     0.442400000000     0.666800000000     0.177161   
H        H      0.345500000000     0.023400000000     0.079300000000     0.177161   
H        H      0.044900000000     0.735100000000     0.974900000000     0.177161   
C        C      0.951100000000     0.476500000000     0.224100000000     0.102914   
C        C      0.973600000000     0.491700000000     0.365800000000     0.102914   
C        C      0.133200000000     0.465200000000     0.413500000000     0.102914   
C        C      0.837700000000     0.528700000000     0.454600000000     0.102914   
C        C      0.669200000000     0.232100000000     0.957400000000     0.102914   
C        C      0.841500000000     0.113100000000     0.976100000000     0.102914   
C        C      0.973300000000     0.158600000000     0.014900000000     0.102914   
C        C      0.869200000000     0.952700000000     0.961700000000     0.102914   
C        C      0.048900000000     0.523500000000     0.775900000000     0.102914   
C        C      0.026400000000     0.508300000000     0.634200000000     0.102914   
C        C      0.866800000000     0.534800000000     0.586500000000     0.102914   
C        C      0.162300000000     0.471300000000     0.545400000000     0.102914   
C        C      0.330800000000     0.767900000000     0.042600000000     0.102914   
C        C      0.158500000000     0.886900000000     0.023900000000     0.102914   
C        C      0.026700000000     0.841400000000     0.985100000000     0.102914   
C        C      0.130800000000     0.047300000000     0.038300000000     0.102914   
O        O      0.076400000000     0.418900000000     0.159600000000    -0.496593   
O        O      0.803000000000     0.523900000000     0.177200000000    -0.496593   
O        O      0.549700000000     0.179100000000     0.938500000000    -0.496593   
O        O      0.645900000000     0.377200000000     0.965400000000    -0.496593   
O        O      0.677100000000     0.560800000000     0.414700000000    -0.496593   
O        O      0.742500000000     0.903200000000     0.924800000000    -0.496593   
O        O      0.923600000000     0.581100000000     0.840400000000    -0.496593   
O        O      0.197000000000     0.476100000000     0.822800000000    -0.496593   
O        O      0.450300000000     0.820900000000     0.061500000000    -0.496593   
O        O      0.354100000000     0.622800000000     0.034600000000    -0.496593   
O        O      0.322900000000     0.439200000000     0.585300000000    -0.496593   
O        O      0.257500000000     0.096800000000     0.075200000000    -0.496593   


