data_OVICUS_original

_audit_creation_method RASPA-1.0
_audit_creation_date 2022-1-31
_audit_author_name 'Felipe Lopes de Oliveira <felipe.lopes.oliveira@ibm.com>'

_cell_length_a    11.174
_cell_length_b    12.8365
_cell_length_c    12.8365
_cell_angle_alpha 62.148
_cell_angle_beta  83.8803
_cell_angle_gamma 83.8803
_cell_volume      1615.25

_symmetry_cell_setting          triclinic
_symmetry_space_group_name_Hall 'P 1'
_symmetry_space_group_name_H-M  'P 1'
_symmetry_Int_Tables_number     1

_symmetry_equiv_pos_as_xyz 'x,y,z'

loop_
_atom_site_label
_atom_site_type_symbol
_atom_site_fract_x
_atom_site_fract_y
_atom_site_fract_z
_atom_site_charge
Zn       Zn     0.865610000000     0.498410000000     0.026790000000     0.474436   
Zn       Zn     0.634390000000     0.973210000000     0.501590000000     0.474436   
Zn       Zn     0.134390000000     0.501590000000     0.973210000000     0.474436   
Zn       Zn     0.365610000000     0.026790000000     0.498410000000     0.474436   
H        H      0.765100000000     0.796700000000     0.690500000000     0.0509862  
H        H      0.110900000000     0.746200000000     0.602200000000     0.0509862  
H        H      0.081100000000     0.889200000000     0.411000000000     0.0509862  
H        H      0.180700000000     0.803600000000     0.038400000000     0.0509862  
H        H      0.846700000000     0.740800000000     0.172600000000     0.0509862  
H        H      0.850300000000     0.879800000000     0.236200000000     0.0509862  
H        H      0.734900000000     0.309500000000     0.203300000000     0.0509862  
H        H      0.389100000000     0.397800000000     0.253800000000     0.0509862  
H        H      0.418900000000     0.589000000000     0.110800000000     0.0509862  
H        H      0.319300000000     0.961600000000     0.196400000000     0.0509862  
H        H      0.653300000000     0.827400000000     0.259200000000     0.0509862  
H        H      0.649700000000     0.763800000000     0.120200000000     0.0509862  
H        H      0.234900000000     0.203300000000     0.309500000000     0.0509862  
H        H      0.889100000000     0.253800000000     0.397800000000     0.0509862  
H        H      0.918900000000     0.110800000000     0.589000000000     0.0509862  
H        H      0.819300000000     0.196400000000     0.961600000000     0.0509862  
H        H      0.153300000000     0.259200000000     0.827400000000     0.0509862  
H        H      0.149700000000     0.120200000000     0.763800000000     0.0509862  
H        H      0.265100000000     0.690500000000     0.796700000000     0.0509862  
H        H      0.610900000000     0.602200000000     0.746200000000     0.0509862  
H        H      0.581100000000     0.411000000000     0.889200000000     0.0509862  
H        H      0.680700000000     0.038400000000     0.803600000000     0.0509862  
H        H      0.346700000000     0.172600000000     0.740800000000     0.0509862  
H        H      0.350300000000     0.236200000000     0.879800000000     0.0509862  
C        C      0.954800000000     0.660600000000     0.790000000000     0.0607953  
C        C      0.940000000000     0.754900000000     0.666700000000     0.0607953  
C        C      0.829700000000     0.815900000000     0.634100000000     0.0607953  
C        C      0.035100000000     0.784500000000     0.582300000000     0.0607953  
C        C      0.018000000000     0.870000000000     0.468800000000     0.0607953  
C        C      0.904700000000     0.927300000000     0.442500000000     0.0607953  
C        C      0.012000000000     0.927500000000     0.164700000000     0.0607953  
C        C      0.111800000000     0.818100000000     0.078300000000     0.0607953  
C        C      0.013600000000     0.752100000000     0.101500000000     0.0607953  
C        C      0.916400000000     0.780600000000     0.157600000000     0.0607953  
C        C      0.014200000000     0.659900000000     0.063700000000     0.0607953  
C        C      0.916500000000     0.865800000000     0.193000000000     0.0607953  
C        C      0.545200000000     0.210000000000     0.339400000000     0.0607953  
C        C      0.560000000000     0.333300000000     0.245100000000     0.0607953  
C        C      0.670300000000     0.365900000000     0.184100000000     0.0607953  
C        C      0.464900000000     0.417700000000     0.215500000000     0.0607953  
C        C      0.482000000000     0.531200000000     0.130000000000     0.0607953  
C        C      0.595300000000     0.557500000000     0.072700000000     0.0607953  
C        C      0.488000000000     0.835300000000     0.072500000000     0.0607953  
C        C      0.388200000000     0.921700000000     0.181900000000     0.0607953  
C        C      0.486400000000     0.898500000000     0.247900000000     0.0607953  
C        C      0.583600000000     0.842400000000     0.219400000000     0.0607953  
C        C      0.485800000000     0.936300000000     0.340100000000     0.0607953  
C        C      0.583500000000     0.807000000000     0.134200000000     0.0607953  
C        C      0.045200000000     0.339400000000     0.210000000000     0.0607953  
C        C      0.060000000000     0.245100000000     0.333300000000     0.0607953  
C        C      0.170300000000     0.184100000000     0.365900000000     0.0607953  
C        C      0.964900000000     0.215500000000     0.417700000000     0.0607953  
C        C      0.982000000000     0.130000000000     0.531200000000     0.0607953  
C        C      0.095300000000     0.072700000000     0.557500000000     0.0607953  
C        C      0.988000000000     0.072500000000     0.835300000000     0.0607953  
C        C      0.888200000000     0.181900000000     0.921700000000     0.0607953  
C        C      0.986400000000     0.247900000000     0.898500000000     0.0607953  
C        C      0.083600000000     0.219400000000     0.842400000000     0.0607953  
C        C      0.985800000000     0.340100000000     0.936300000000     0.0607953  
C        C      0.083500000000     0.134200000000     0.807000000000     0.0607953  
C        C      0.454800000000     0.790000000000     0.660600000000     0.0607953  
C        C      0.440000000000     0.666700000000     0.754900000000     0.0607953  
C        C      0.329700000000     0.634100000000     0.815900000000     0.0607953  
C        C      0.535100000000     0.582300000000     0.784500000000     0.0607953  
C        C      0.518000000000     0.468800000000     0.870000000000     0.0607953  
C        C      0.404700000000     0.442500000000     0.927300000000     0.0607953  
C        C      0.512000000000     0.164700000000     0.927500000000     0.0607953  
C        C      0.611800000000     0.078300000000     0.818100000000     0.0607953  
C        C      0.513600000000     0.101500000000     0.752100000000     0.0607953  
C        C      0.416400000000     0.157600000000     0.780600000000     0.0607953  
C        C      0.514200000000     0.063700000000     0.659900000000     0.0607953  
C        C      0.416500000000     0.193000000000     0.865800000000     0.0607953  
S        S      0.020250000000     0.046310000000     0.198430000000    -0.00839891 
S        S      0.868310000000     0.040510000000     0.300130000000    -0.00839891 
S        S      0.479750000000     0.801570000000     0.953690000000    -0.00839891 
S        S      0.631690000000     0.699870000000     0.959490000000    -0.00839891 
S        S      0.979750000000     0.953690000000     0.801570000000    -0.00839891 
S        S      0.131690000000     0.959490000000     0.699870000000    -0.00839891 
S        S      0.520250000000     0.198430000000     0.046310000000    -0.00839891 
S        S      0.368310000000     0.300130000000     0.040510000000    -0.00839891 
N        N      0.110300000000     0.904900000000     0.112500000000    -0.15192    
N        N      0.811700000000     0.902300000000     0.523900000000    -0.15192    
N        N      0.389700000000     0.887500000000     0.095100000000    -0.15192    
N        N      0.688300000000     0.476100000000     0.097700000000    -0.15192    
N        N      0.889700000000     0.095100000000     0.887500000000    -0.15192    
N        N      0.188300000000     0.097700000000     0.476100000000    -0.15192    
N        N      0.610300000000     0.112500000000     0.904900000000    -0.15192    
N        N      0.311700000000     0.523900000000     0.902300000000    -0.15192    
O        O      0.113400000000     0.627400000000     0.027000000000    -0.297314   
O        O      0.914200000000     0.620100000000     0.070300000000    -0.297314   
O        O      0.060900000000     0.625600000000     0.818600000000    -0.297314   
O        O      0.861700000000     0.622200000000     0.856200000000    -0.297314   
O        O      0.386600000000     0.973000000000     0.372600000000    -0.297314   
O        O      0.585800000000     0.929700000000     0.379900000000    -0.297314   
O        O      0.439100000000     0.181400000000     0.374400000000    -0.297314   
O        O      0.638300000000     0.143800000000     0.377800000000    -0.297314   
O        O      0.886600000000     0.372600000000     0.973000000000    -0.297314   
O        O      0.085800000000     0.379900000000     0.929700000000    -0.297314   
O        O      0.939100000000     0.374400000000     0.181400000000    -0.297314   
O        O      0.138300000000     0.377800000000     0.143800000000    -0.297314   
O        O      0.613400000000     0.027000000000     0.627400000000    -0.297314   
O        O      0.414200000000     0.070300000000     0.620100000000    -0.297314   
O        O      0.560900000000     0.818600000000     0.625600000000    -0.297314   
O        O      0.361700000000     0.856200000000     0.622200000000    -0.297314   


