data_OYODEM_original

_audit_creation_method RASPA-1.0
_audit_creation_date 2022-1-30
_audit_author_name 'Felipe Lopes de Oliveira <felipe.lopes.oliveira@ibm.com>'

_cell_length_a    16.0871
_cell_length_b    18.8569
_cell_length_c    18.8569
_cell_angle_alpha 90
_cell_angle_beta  90
_cell_angle_gamma 90
_cell_volume      5720.29

_symmetry_cell_setting          triclinic
_symmetry_space_group_name_Hall 'P 1'
_symmetry_space_group_name_H-M  'P 1'
_symmetry_Int_Tables_number     1

_symmetry_equiv_pos_as_xyz 'x,y,z'

loop_
_atom_site_label
_atom_site_type_symbol
_atom_site_fract_x
_atom_site_fract_y
_atom_site_fract_z
_atom_site_charge
Zn       Zn     0.225640000000     0.843030000000     0.115580000000     0.374263   
Zn       Zn     0.774360000000     0.115580000000     0.156970000000     0.374263   
Zn       Zn     0.225640000000     0.156970000000     0.884420000000     0.374263   
Zn       Zn     0.774360000000     0.884420000000     0.843030000000     0.374263   
Zn       Zn     0.725640000000     0.343030000000     0.615580000000     0.374263   
Zn       Zn     0.274360000000     0.615580000000     0.656970000000     0.374263   
Zn       Zn     0.725640000000     0.656970000000     0.384420000000     0.374263   
Zn       Zn     0.274360000000     0.384420000000     0.343030000000     0.374263   
B        B      0.894800000000     0.842200000000     0.203600000000     1.40208    
B        B      0.105200000000     0.203600000000     0.157800000000     1.40208    
B        B      0.894800000000     0.157800000000     0.796400000000     1.40208    
B        B      0.105200000000     0.796400000000     0.842200000000     1.40208    
B        B      0.394800000000     0.342200000000     0.703600000000     1.40208    
B        B      0.605200000000     0.703600000000     0.657800000000     1.40208    
B        B      0.394800000000     0.657800000000     0.296400000000     1.40208    
B        B      0.605200000000     0.296400000000     0.342200000000     1.40208    
H        H      0.000000000000     0.955600000000     0.257500000000     0.0802506  
H        H      0.000000000000     0.257500000000     0.044400000000     0.0802506  
H        H      0.000000000000     0.044400000000     0.742500000000     0.0802506  
H        H      0.000000000000     0.742500000000     0.955600000000     0.0802506  
H        H      0.500000000000     0.455600000000     0.757500000000     0.0802506  
H        H      0.500000000000     0.757500000000     0.544400000000     0.0802506  
H        H      0.500000000000     0.544400000000     0.242500000000     0.0802506  
H        H      0.500000000000     0.242500000000     0.455600000000     0.0802506  
H        H      0.354900000000     0.088300000000     0.185900000000     0.0802506  
H        H      0.645100000000     0.185900000000     0.911700000000     0.0802506  
H        H      0.354900000000     0.911700000000     0.814100000000     0.0802506  
H        H      0.645100000000     0.814100000000     0.088300000000     0.0802506  
H        H      0.854900000000     0.588300000000     0.685900000000     0.0802506  
H        H      0.145100000000     0.685900000000     0.411700000000     0.0802506  
H        H      0.854900000000     0.411700000000     0.314100000000     0.0802506  
H        H      0.145100000000     0.314100000000     0.588300000000     0.0802506  
H        H      0.979500000000     0.798200000000     0.328700000000     0.0802506  
H        H      0.020500000000     0.328700000000     0.201800000000     0.0802506  
H        H      0.979500000000     0.201800000000     0.671300000000     0.0802506  
H        H      0.020500000000     0.671300000000     0.798200000000     0.0802506  
H        H      0.479500000000     0.298200000000     0.828700000000     0.0802506  
H        H      0.520500000000     0.828700000000     0.701800000000     0.0802506  
H        H      0.479500000000     0.701800000000     0.171300000000     0.0802506  
H        H      0.520500000000     0.171300000000     0.298200000000     0.0802506  
H        H      0.442900000000     0.096400000000     0.949100000000     0.0802506  
H        H      0.557100000000     0.949100000000     0.903600000000     0.0802506  
H        H      0.442900000000     0.903600000000     0.050900000000     0.0802506  
H        H      0.557100000000     0.050900000000     0.096400000000     0.0802506  
H        H      0.942900000000     0.596400000000     0.449100000000     0.0802506  
H        H      0.057100000000     0.449100000000     0.403600000000     0.0802506  
H        H      0.942900000000     0.403600000000     0.550900000000     0.0802506  
H        H      0.057100000000     0.550900000000     0.596400000000     0.0802506  
H        H      0.420000000000     0.187700000000     0.140500000000     0.0802506  
H        H      0.580000000000     0.140500000000     0.812300000000     0.0802506  
H        H      0.420000000000     0.812300000000     0.859500000000     0.0802506  
H        H      0.580000000000     0.859500000000     0.187700000000     0.0802506  
H        H      0.920000000000     0.687700000000     0.640500000000     0.0802506  
H        H      0.080000000000     0.640500000000     0.312300000000     0.0802506  
H        H      0.920000000000     0.312300000000     0.359500000000     0.0802506  
H        H      0.080000000000     0.359500000000     0.687700000000     0.0802506  
H        H      0.465500000000     0.191100000000     0.021700000000     0.0802506  
H        H      0.534500000000     0.021700000000     0.808900000000     0.0802506  
H        H      0.465500000000     0.808900000000     0.978300000000     0.0802506  
H        H      0.534500000000     0.978300000000     0.191100000000     0.0802506  
H        H      0.965500000000     0.691100000000     0.521700000000     0.0802506  
H        H      0.034500000000     0.521700000000     0.308900000000     0.0802506  
H        H      0.965500000000     0.308900000000     0.478300000000     0.0802506  
H        H      0.034500000000     0.478300000000     0.691100000000     0.0802506  
H        H      0.146200000000     0.952700000000     0.219100000000     0.0802506  
H        H      0.853800000000     0.219100000000     0.047300000000     0.0802506  
H        H      0.146200000000     0.047300000000     0.780900000000     0.0802506  
H        H      0.853800000000     0.780900000000     0.952700000000     0.0802506  
H        H      0.646200000000     0.452700000000     0.719100000000     0.0802506  
H        H      0.353800000000     0.719100000000     0.547300000000     0.0802506  
H        H      0.646200000000     0.547300000000     0.280900000000     0.0802506  
H        H      0.353800000000     0.280900000000     0.452700000000     0.0802506  
H        H      0.757600000000     0.026200000000     0.305300000000     0.0802506  
H        H      0.242400000000     0.305300000000     0.973800000000     0.0802506  
H        H      0.757600000000     0.973800000000     0.694700000000     0.0802506  
H        H      0.242400000000     0.694700000000     0.026200000000     0.0802506  
H        H      0.257600000000     0.526200000000     0.805300000000     0.0802506  
H        H      0.742400000000     0.805300000000     0.473800000000     0.0802506  
H        H      0.257600000000     0.473800000000     0.194700000000     0.0802506  
H        H      0.742400000000     0.194700000000     0.526200000000     0.0802506  
H        H      0.079800000000     0.738400000000     0.109700000000     0.0802506  
H        H      0.920200000000     0.109700000000     0.261600000000     0.0802506  
H        H      0.079800000000     0.261600000000     0.890300000000     0.0802506  
H        H      0.920200000000     0.890300000000     0.738400000000     0.0802506  
H        H      0.579800000000     0.238400000000     0.609700000000     0.0802506  
H        H      0.420200000000     0.609700000000     0.761600000000     0.0802506  
H        H      0.579800000000     0.761600000000     0.390300000000     0.0802506  
H        H      0.420200000000     0.390300000000     0.238400000000     0.0802506  
H        H      0.984400000000     0.760400000000     0.099500000000     0.0802506  
H        H      0.015600000000     0.099500000000     0.239600000000     0.0802506  
H        H      0.984400000000     0.239600000000     0.900500000000     0.0802506  
H        H      0.015600000000     0.900500000000     0.760400000000     0.0802506  
H        H      0.484400000000     0.260400000000     0.599500000000     0.0802506  
H        H      0.515600000000     0.599500000000     0.739600000000     0.0802506  
H        H      0.484400000000     0.739600000000     0.400500000000     0.0802506  
H        H      0.515600000000     0.400500000000     0.260400000000     0.0802506  
H        H      0.014000000000     0.723200000000     0.171500000000     0.0802506  
H        H      0.986000000000     0.171500000000     0.276800000000     0.0802506  
H        H      0.014000000000     0.276800000000     0.828500000000     0.0802506  
H        H      0.986000000000     0.828500000000     0.723200000000     0.0802506  
H        H      0.514000000000     0.223200000000     0.671500000000     0.0802506  
H        H      0.486000000000     0.671500000000     0.776800000000     0.0802506  
H        H      0.514000000000     0.776800000000     0.328500000000     0.0802506  
H        H      0.486000000000     0.328500000000     0.223200000000     0.0802506  
H        H      0.893800000000     0.917800000000     0.090400000000     0.0802506  
H        H      0.106200000000     0.090400000000     0.082200000000     0.0802506  
H        H      0.893800000000     0.082200000000     0.909600000000     0.0802506  
H        H      0.106200000000     0.909600000000     0.917800000000     0.0802506  
H        H      0.393800000000     0.417800000000     0.590400000000     0.0802506  
H        H      0.606200000000     0.590400000000     0.582200000000     0.0802506  
H        H      0.393800000000     0.582200000000     0.409600000000     0.0802506  
H        H      0.606200000000     0.409600000000     0.417800000000     0.0802506  
H        H      0.818400000000     0.967600000000     0.066500000000     0.0802506  
H        H      0.181600000000     0.066500000000     0.032400000000     0.0802506  
H        H      0.818400000000     0.032400000000     0.933500000000     0.0802506  
H        H      0.181600000000     0.933500000000     0.967600000000     0.0802506  
H        H      0.318400000000     0.467600000000     0.566500000000     0.0802506  
H        H      0.681600000000     0.566500000000     0.532400000000     0.0802506  
H        H      0.318400000000     0.532400000000     0.433500000000     0.0802506  
H        H      0.681600000000     0.433500000000     0.467600000000     0.0802506  
H        H      0.904900000000     0.002100000000     0.090300000000     0.0802506  
H        H      0.095100000000     0.090300000000     0.997900000000     0.0802506  
H        H      0.904900000000     0.997900000000     0.909700000000     0.0802506  
H        H      0.095100000000     0.909700000000     0.002100000000     0.0802506  
H        H      0.404900000000     0.502100000000     0.590300000000     0.0802506  
H        H      0.595100000000     0.590300000000     0.497900000000     0.0802506  
H        H      0.404900000000     0.497900000000     0.409700000000     0.0802506  
H        H      0.595100000000     0.409700000000     0.502100000000     0.0802506  
H        H      0.903000000000     0.722800000000     0.414100000000     0.0802506  
H        H      0.097000000000     0.414100000000     0.277200000000     0.0802506  
H        H      0.903000000000     0.277200000000     0.585900000000     0.0802506  
H        H      0.097000000000     0.585900000000     0.722800000000     0.0802506  
H        H      0.403000000000     0.222800000000     0.914100000000     0.0802506  
H        H      0.597000000000     0.914100000000     0.777200000000     0.0802506  
H        H      0.403000000000     0.777200000000     0.085900000000     0.0802506  
H        H      0.597000000000     0.085900000000     0.222800000000     0.0802506  
H        H      0.810300000000     0.907700000000     0.324000000000     0.0802506  
H        H      0.189700000000     0.324000000000     0.092300000000     0.0802506  
H        H      0.810300000000     0.092300000000     0.676000000000     0.0802506  
H        H      0.189700000000     0.676000000000     0.907700000000     0.0802506  
H        H      0.310300000000     0.407700000000     0.824000000000     0.0802506  
H        H      0.689700000000     0.824000000000     0.592300000000     0.0802506  
H        H      0.310300000000     0.592300000000     0.176000000000     0.0802506  
H        H      0.689700000000     0.176000000000     0.407700000000     0.0802506  
H        H      0.693000000000     0.725200000000     0.245500000000     0.0802506  
H        H      0.307000000000     0.245500000000     0.274800000000     0.0802506  
H        H      0.693000000000     0.274800000000     0.754500000000     0.0802506  
H        H      0.307000000000     0.754500000000     0.725200000000     0.0802506  
H        H      0.193000000000     0.225200000000     0.745500000000     0.0802506  
H        H      0.807000000000     0.745500000000     0.774800000000     0.0802506  
H        H      0.193000000000     0.774800000000     0.254500000000     0.0802506  
H        H      0.807000000000     0.254500000000     0.225200000000     0.0802506  
H        H      0.754800000000     0.740900000000     0.180800000000     0.0802506  
H        H      0.245200000000     0.180800000000     0.259100000000     0.0802506  
H        H      0.754800000000     0.259100000000     0.819200000000     0.0802506  
H        H      0.245200000000     0.819200000000     0.740900000000     0.0802506  
H        H      0.254800000000     0.240900000000     0.680800000000     0.0802506  
H        H      0.745200000000     0.680800000000     0.759100000000     0.0802506  
H        H      0.254800000000     0.759100000000     0.319200000000     0.0802506  
H        H      0.745200000000     0.319200000000     0.240900000000     0.0802506  
H        H      0.715600000000     0.805300000000     0.224900000000     0.0802506  
H        H      0.284400000000     0.224900000000     0.194700000000     0.0802506  
H        H      0.715600000000     0.194700000000     0.775100000000     0.0802506  
H        H      0.284400000000     0.775100000000     0.805300000000     0.0802506  
H        H      0.215600000000     0.305300000000     0.724900000000     0.0802506  
H        H      0.784400000000     0.724900000000     0.694700000000     0.0802506  
H        H      0.215600000000     0.694700000000     0.275100000000     0.0802506  
H        H      0.784400000000     0.275100000000     0.305300000000     0.0802506  
H        H      0.866000000000     0.811000000000     0.166000000000     0.0802506  
H        H      0.134000000000     0.166000000000     0.189000000000     0.0802506  
H        H      0.866000000000     0.189000000000     0.834000000000     0.0802506  
H        H      0.134000000000     0.834000000000     0.811000000000     0.0802506  
H        H      0.366000000000     0.311000000000     0.666000000000     0.0802506  
H        H      0.634000000000     0.666000000000     0.689000000000     0.0802506  
H        H      0.366000000000     0.689000000000     0.334000000000     0.0802506  
H        H      0.634000000000     0.334000000000     0.311000000000     0.0802506  
C        C      0.384000000000     0.031800000000     0.023700000000    -0.0442549  
C        C      0.616000000000     0.023700000000     0.968200000000    -0.0442549  
C        C      0.384000000000     0.968200000000     0.976300000000    -0.0442549  
C        C      0.616000000000     0.976300000000     0.031800000000    -0.0442549  
C        C      0.884000000000     0.531800000000     0.523700000000    -0.0442549  
C        C      0.116000000000     0.523700000000     0.468200000000    -0.0442549  
C        C      0.884000000000     0.468200000000     0.476300000000    -0.0442549  
C        C      0.116000000000     0.476300000000     0.531800000000    -0.0442549  
C        C      0.355700000000     0.031800000000     0.096000000000    -0.0442549  
C        C      0.644300000000     0.096000000000     0.968200000000    -0.0442549  
C        C      0.355700000000     0.968200000000     0.904000000000    -0.0442549  
C        C      0.644300000000     0.904000000000     0.031800000000    -0.0442549  
C        C      0.855700000000     0.531800000000     0.596000000000    -0.0442549  
C        C      0.144300000000     0.596000000000     0.468200000000    -0.0442549  
C        C      0.855700000000     0.468200000000     0.404000000000    -0.0442549  
C        C      0.144300000000     0.404000000000     0.531800000000    -0.0442549  
C        C      0.025100000000     0.920100000000     0.229000000000    -0.0442549  
C        C      0.974900000000     0.229000000000     0.079900000000    -0.0442549  
C        C      0.025100000000     0.079900000000     0.771000000000    -0.0442549  
C        C      0.974900000000     0.771000000000     0.920100000000    -0.0442549  
C        C      0.525100000000     0.420100000000     0.729000000000    -0.0442549  
C        C      0.474900000000     0.729000000000     0.579900000000    -0.0442549  
C        C      0.525100000000     0.579900000000     0.271000000000    -0.0442549  
C        C      0.474900000000     0.271000000000     0.420100000000    -0.0442549  
C        C      0.047700000000     0.826500000000     0.164900000000    -0.0442549  
C        C      0.952300000000     0.164900000000     0.173500000000    -0.0442549  
C        C      0.047700000000     0.173500000000     0.835100000000    -0.0442549  
C        C      0.952300000000     0.835100000000     0.826500000000    -0.0442549  
C        C      0.547700000000     0.326500000000     0.664900000000    -0.0442549  
C        C      0.452300000000     0.664900000000     0.673500000000    -0.0442549  
C        C      0.547700000000     0.673500000000     0.335100000000    -0.0442549  
C        C      0.452300000000     0.335100000000     0.326500000000    -0.0442549  
C        C      0.371400000000     0.089000000000     0.137500000000    -0.0442549  
C        C      0.628600000000     0.137500000000     0.911000000000    -0.0442549  
C        C      0.371400000000     0.911000000000     0.862500000000    -0.0442549  
C        C      0.628600000000     0.862500000000     0.089000000000    -0.0442549  
C        C      0.871400000000     0.589000000000     0.637500000000    -0.0442549  
C        C      0.128600000000     0.637500000000     0.411000000000    -0.0442549  
C        C      0.871400000000     0.411000000000     0.362500000000    -0.0442549  
C        C      0.128600000000     0.362500000000     0.589000000000    -0.0442549  
C        C      0.925000000000     0.780000000000     0.322200000000    -0.0442549  
C        C      0.075000000000     0.322200000000     0.220000000000    -0.0442549  
C        C      0.925000000000     0.220000000000     0.677800000000    -0.0442549  
C        C      0.075000000000     0.677800000000     0.780000000000    -0.0442549  
C        C      0.425000000000     0.280000000000     0.822200000000    -0.0442549  
C        C      0.575000000000     0.822200000000     0.720000000000    -0.0442549  
C        C      0.425000000000     0.720000000000     0.177800000000    -0.0442549  
C        C      0.575000000000     0.177800000000     0.280000000000    -0.0442549  
C        C      0.425100000000     0.094700000000     0.997100000000    -0.0442549  
C        C      0.574900000000     0.997100000000     0.905300000000    -0.0442549  
C        C      0.425100000000     0.905300000000     0.002900000000    -0.0442549  
C        C      0.574900000000     0.002900000000     0.094700000000    -0.0442549  
C        C      0.925100000000     0.594700000000     0.497100000000    -0.0442549  
C        C      0.074900000000     0.497100000000     0.405300000000    -0.0442549  
C        C      0.925100000000     0.405300000000     0.502900000000    -0.0442549  
C        C      0.074900000000     0.502900000000     0.594700000000    -0.0442549  
C        C      0.836100000000     0.966100000000     0.173100000000    -0.0442549  
C        C      0.163900000000     0.173100000000     0.033900000000    -0.0442549  
C        C      0.836100000000     0.033900000000     0.826900000000    -0.0442549  
C        C      0.163900000000     0.826900000000     0.966100000000    -0.0442549  
C        C      0.336100000000     0.466100000000     0.673100000000    -0.0442549  
C        C      0.663900000000     0.673100000000     0.533900000000    -0.0442549  
C        C      0.336100000000     0.533900000000     0.326900000000    -0.0442549  
C        C      0.663900000000     0.326900000000     0.466100000000    -0.0442549  
C        C      0.410800000000     0.147800000000     0.110700000000    -0.0442549  
C        C      0.589200000000     0.110700000000     0.852200000000    -0.0442549  
C        C      0.410800000000     0.852200000000     0.889300000000    -0.0442549  
C        C      0.589200000000     0.889300000000     0.147800000000    -0.0442549  
C        C      0.910800000000     0.647800000000     0.610700000000    -0.0442549  
C        C      0.089200000000     0.610700000000     0.352200000000    -0.0442549  
C        C      0.910800000000     0.352200000000     0.389300000000    -0.0442549  
C        C      0.089200000000     0.389300000000     0.647800000000    -0.0442549  
C        C      0.311700000000     0.970700000000     0.126500000000    -0.0442549  
C        C      0.688300000000     0.126500000000     0.029300000000    -0.0442549  
C        C      0.311700000000     0.029300000000     0.873500000000    -0.0442549  
C        C      0.688300000000     0.873500000000     0.970700000000    -0.0442549  
C        C      0.811700000000     0.470700000000     0.626500000000    -0.0442549  
C        C      0.188300000000     0.626500000000     0.529300000000    -0.0442549  
C        C      0.811700000000     0.529300000000     0.373500000000    -0.0442549  
C        C      0.188300000000     0.373500000000     0.470700000000    -0.0442549  
C        C      0.438100000000     0.150200000000     0.039300000000    -0.0442549  
C        C      0.561900000000     0.039300000000     0.849800000000    -0.0442549  
C        C      0.438100000000     0.849800000000     0.960700000000    -0.0442549  
C        C      0.561900000000     0.960700000000     0.150200000000    -0.0442549  
C        C      0.938100000000     0.650200000000     0.539300000000    -0.0442549  
C        C      0.061900000000     0.539300000000     0.349800000000    -0.0442549  
C        C      0.938100000000     0.349800000000     0.460700000000    -0.0442549  
C        C      0.061900000000     0.460700000000     0.650200000000    -0.0442549  
C        C      0.105400000000     0.918100000000     0.207600000000    -0.0442549  
C        C      0.894600000000     0.207600000000     0.081900000000    -0.0442549  
C        C      0.105400000000     0.081900000000     0.792400000000    -0.0442549  
C        C      0.894600000000     0.792400000000     0.918100000000    -0.0442549  
C        C      0.605400000000     0.418100000000     0.707600000000    -0.0442549  
C        C      0.394600000000     0.707600000000     0.581900000000    -0.0442549  
C        C      0.605400000000     0.581900000000     0.292400000000    -0.0442549  
C        C      0.394600000000     0.292400000000     0.418100000000    -0.0442549  
C        C      0.030000000000     0.756200000000     0.133800000000    -0.0442549  
C        C      0.970000000000     0.133800000000     0.243800000000    -0.0442549  
C        C      0.030000000000     0.243800000000     0.866200000000    -0.0442549  
C        C      0.970000000000     0.866200000000     0.756200000000    -0.0442549  
C        C      0.530000000000     0.256200000000     0.633800000000    -0.0442549  
C        C      0.470000000000     0.633800000000     0.743800000000    -0.0442549  
C        C      0.530000000000     0.743800000000     0.366200000000    -0.0442549  
C        C      0.470000000000     0.366200000000     0.256200000000    -0.0442549  
C        C      0.865800000000     0.963200000000     0.098800000000    -0.0442549  
C        C      0.134200000000     0.098800000000     0.036800000000    -0.0442549  
C        C      0.865800000000     0.036800000000     0.901200000000    -0.0442549  
C        C      0.134200000000     0.901200000000     0.963200000000    -0.0442549  
C        C      0.365800000000     0.463200000000     0.598800000000    -0.0442549  
C        C      0.634200000000     0.598800000000     0.536800000000    -0.0442549  
C        C      0.365800000000     0.536800000000     0.401200000000    -0.0442549  
C        C      0.634200000000     0.401200000000     0.463200000000    -0.0442549  
C        C      0.883700000000     0.737900000000     0.368900000000    -0.0442549  
C        C      0.116300000000     0.368900000000     0.262100000000    -0.0442549  
C        C      0.883700000000     0.262100000000     0.631100000000    -0.0442549  
C        C      0.116300000000     0.631100000000     0.737900000000    -0.0442549  
C        C      0.383700000000     0.237900000000     0.868900000000    -0.0442549  
C        C      0.616300000000     0.868900000000     0.762100000000    -0.0442549  
C        C      0.383700000000     0.762100000000     0.131100000000    -0.0442549  
C        C      0.616300000000     0.131100000000     0.237900000000    -0.0442549  
C        C      0.782300000000     0.000000000000     0.271400000000    -0.0442549  
C        C      0.217700000000     0.271400000000     0.000000000000    -0.0442549  
C        C      0.782300000000     0.000000000000     0.728600000000    -0.0442549  
C        C      0.217700000000     0.728600000000     0.000000000000    -0.0442549  
C        C      0.282300000000     0.500000000000     0.771400000000    -0.0442549  
C        C      0.717700000000     0.771400000000     0.500000000000    -0.0442549  
C        C      0.282300000000     0.500000000000     0.228600000000    -0.0442549  
C        C      0.717700000000     0.228600000000     0.500000000000    -0.0442549  
C        C      0.812400000000     0.934200000000     0.281200000000    -0.0442549  
C        C      0.187600000000     0.281200000000     0.065800000000    -0.0442549  
C        C      0.812400000000     0.065800000000     0.718800000000    -0.0442549  
C        C      0.187600000000     0.718800000000     0.934200000000    -0.0442549  
C        C      0.312400000000     0.434200000000     0.781200000000    -0.0442549  
C        C      0.687600000000     0.781200000000     0.565800000000    -0.0442549  
C        C      0.312400000000     0.565800000000     0.218800000000    -0.0442549  
C        C      0.687600000000     0.218800000000     0.434200000000    -0.0442549  
C        C      0.807200000000     0.754700000000     0.276300000000    -0.0442549  
C        C      0.192800000000     0.276300000000     0.245300000000    -0.0442549  
C        C      0.807200000000     0.245300000000     0.723700000000    -0.0442549  
C        C      0.192800000000     0.723700000000     0.754700000000    -0.0442549  
C        C      0.307200000000     0.254700000000     0.776300000000    -0.0442549  
C        C      0.692800000000     0.776300000000     0.745300000000    -0.0442549  
C        C      0.307200000000     0.745300000000     0.223700000000    -0.0442549  
C        C      0.692800000000     0.223700000000     0.254700000000    -0.0442549  
C        C      0.736900000000     0.756700000000     0.227900000000    -0.0442549  
C        C      0.263100000000     0.227900000000     0.243300000000    -0.0442549  
C        C      0.736900000000     0.243300000000     0.772100000000    -0.0442549  
C        C      0.263100000000     0.772100000000     0.756700000000    -0.0442549  
C        C      0.236900000000     0.256700000000     0.727900000000    -0.0442549  
C        C      0.763100000000     0.727900000000     0.743300000000    -0.0442549  
C        C      0.236900000000     0.743300000000     0.272100000000    -0.0442549  
C        C      0.763100000000     0.272100000000     0.256700000000    -0.0442549  
N        N      0.986900000000     0.860900000000     0.201600000000    -0.319469   
N        N      0.013100000000     0.201600000000     0.139100000000    -0.319469   
N        N      0.986900000000     0.139100000000     0.798400000000    -0.319469   
N        N      0.013100000000     0.798400000000     0.860900000000    -0.319469   
N        N      0.486900000000     0.360900000000     0.701600000000    -0.319469   
N        N      0.513100000000     0.701600000000     0.639100000000    -0.319469   
N        N      0.486900000000     0.639100000000     0.298400000000    -0.319469   
N        N      0.513100000000     0.298400000000     0.360900000000    -0.319469   
N        N      0.797900000000     0.021200000000     0.201700000000    -0.319469   
N        N      0.202100000000     0.201700000000     0.978800000000    -0.319469   
N        N      0.797900000000     0.978800000000     0.798300000000    -0.319469   
N        N      0.202100000000     0.798300000000     0.021200000000    -0.319469   
N        N      0.297900000000     0.521200000000     0.701700000000    -0.319469   
N        N      0.702100000000     0.701700000000     0.478800000000    -0.319469   
N        N      0.297900000000     0.478800000000     0.298300000000    -0.319469   
N        N      0.702100000000     0.298300000000     0.521200000000    -0.319469   
N        N      0.119000000000     0.859900000000     0.167400000000    -0.319469   
N        N      0.881000000000     0.167400000000     0.140100000000    -0.319469   
N        N      0.119000000000     0.140100000000     0.832600000000    -0.319469   
N        N      0.881000000000     0.832600000000     0.859900000000    -0.319469   
N        N      0.619000000000     0.359900000000     0.667400000000    -0.319469   
N        N      0.381000000000     0.667400000000     0.640100000000    -0.319469   
N        N      0.619000000000     0.640100000000     0.332600000000    -0.319469   
N        N      0.381000000000     0.332600000000     0.359900000000    -0.319469   
N        N      0.846700000000     0.912300000000     0.218300000000    -0.319469   
N        N      0.153300000000     0.218300000000     0.087700000000    -0.319469   
N        N      0.846700000000     0.087700000000     0.781700000000    -0.319469   
N        N      0.153300000000     0.781700000000     0.912300000000    -0.319469   
N        N      0.346700000000     0.412300000000     0.718300000000    -0.319469   
N        N      0.653300000000     0.718300000000     0.587700000000    -0.319469   
N        N      0.346700000000     0.587700000000     0.281700000000    -0.319469   
N        N      0.653300000000     0.281700000000     0.412300000000    -0.319469   
N        N      0.876200000000     0.792000000000     0.265000000000    -0.319469   
N        N      0.123800000000     0.265000000000     0.208000000000    -0.319469   
N        N      0.876200000000     0.208000000000     0.735000000000    -0.319469   
N        N      0.123800000000     0.735000000000     0.792000000000    -0.319469   
N        N      0.376200000000     0.292000000000     0.765000000000    -0.319469   
N        N      0.623800000000     0.765000000000     0.708000000000    -0.319469   
N        N      0.376200000000     0.708000000000     0.235000000000    -0.319469   
N        N      0.623800000000     0.235000000000     0.292000000000    -0.319469   
N        N      0.808400000000     0.721300000000     0.338200000000    -0.319469   
N        N      0.191600000000     0.338200000000     0.278700000000    -0.319469   
N        N      0.808400000000     0.278700000000     0.661800000000    -0.319469   
N        N      0.191600000000     0.661800000000     0.721300000000    -0.319469   
N        N      0.308400000000     0.221300000000     0.838200000000    -0.319469   
N        N      0.691600000000     0.838200000000     0.778700000000    -0.319469   
N        N      0.308400000000     0.778700000000     0.161800000000    -0.319469   
N        N      0.691600000000     0.161800000000     0.221300000000    -0.319469   
O        O      0.269500000000     0.933300000000     0.085600000000    -0.31185    
O        O      0.730500000000     0.085600000000     0.066700000000    -0.31185    
O        O      0.269500000000     0.066700000000     0.914400000000    -0.31185    
O        O      0.730500000000     0.914400000000     0.933300000000    -0.31185    
O        O      0.769500000000     0.433300000000     0.585600000000    -0.31185    
O        O      0.230500000000     0.585600000000     0.566700000000    -0.31185    
O        O      0.769500000000     0.566700000000     0.414400000000    -0.31185    
O        O      0.230500000000     0.414400000000     0.433300000000    -0.31185    
O        O      0.314200000000     0.960700000000     0.189400000000    -0.31185    
O        O      0.685800000000     0.189400000000     0.039300000000    -0.31185    
O        O      0.314200000000     0.039300000000     0.810600000000    -0.31185    
O        O      0.685800000000     0.810600000000     0.960700000000    -0.31185    
O        O      0.814200000000     0.460700000000     0.689400000000    -0.31185    
O        O      0.185800000000     0.689400000000     0.539300000000    -0.31185    
O        O      0.814200000000     0.539300000000     0.310600000000    -0.31185    
O        O      0.185800000000     0.310600000000     0.460700000000    -0.31185    


