data_PAMHES_original

_audit_creation_method RASPA-1.0
_audit_creation_date 2022-1-30
_audit_author_name 'Felipe Lopes de Oliveira <felipe.lopes.oliveira@ibm.com>'

_cell_length_a    8.2336
_cell_length_b    9.697
_cell_length_c    19.402
_cell_angle_alpha 90
_cell_angle_beta  90
_cell_angle_gamma 101.727
_cell_volume      1516.75

_symmetry_cell_setting          triclinic
_symmetry_space_group_name_Hall 'P 1'
_symmetry_space_group_name_H-M  'P 1'
_symmetry_Int_Tables_number     1

_symmetry_equiv_pos_as_xyz 'x,y,z'

loop_
_atom_site_label
_atom_site_type_symbol
_atom_site_fract_x
_atom_site_fract_y
_atom_site_fract_z
_atom_site_charge
Zn       Zn     0.284910000000     0.157030000000     0.295880000000     0.518812   
Zn       Zn     0.638150000000     0.053130000000     0.239750000000     0.518812   
Zn       Zn     0.715090000000     0.842970000000     0.795880000000     0.518812   
Zn       Zn     0.361850000000     0.946870000000     0.739750000000     0.518812   
H        H      0.148200000000     0.197700000000     0.321500000000    -0.0035367  
H        H      0.986800000000     0.366300000000     0.379300000000    -0.0035367  
H        H      0.016900000000     0.225700000000     0.409400000000    -0.0035367  
H        H      0.211900000000     0.469500000000     0.410200000000    -0.0035367  
H        H      0.260300000000     0.328600000000     0.433800000000    -0.0035367  
H        H      0.114700000000     0.381700000000     0.470500000000    -0.0035367  
H        H      0.851800000000     0.802300000000     0.821500000000    -0.0035367  
H        H      0.013200000000     0.633700000000     0.879300000000    -0.0035367  
H        H      0.983100000000     0.774300000000     0.909400000000    -0.0035367  
H        H      0.788100000000     0.530500000000     0.910200000000    -0.0035367  
H        H      0.739700000000     0.671400000000     0.933800000000    -0.0035367  
H        H      0.885300000000     0.618300000000     0.970500000000    -0.0035367  
C        C      0.468900000000     0.190100000000     0.045600000000     0.198838   
C        C      0.515400000000     0.153600000000     0.981600000000     0.198838   
C        C      0.471300000000     0.015900000000     0.957400000000     0.198838   
C        C      0.378600000000     0.918400000000     0.001200000000     0.198838   
C        C      0.330700000000     0.956000000000     0.065400000000     0.198838   
C        C      0.376200000000     0.092100000000     0.089500000000     0.198838   
C        C      0.324800000000     0.133000000000     0.160300000000     0.198838   
C        C      0.520600000000     0.974400000000     0.886500000000     0.198838   
C        C      0.859400000000     0.712000000000     0.226000000000     0.198838   
C        C      0.782900000000     0.572400000000     0.225800000000     0.198838   
C        C      0.707300000000     0.507800000000     0.284300000000     0.198838   
C        C      0.713500000000     0.588800000000     0.342900000000     0.198838   
C        C      0.794400000000     0.729600000000     0.342800000000     0.198838   
C        C      0.867700000000     0.793400000000     0.284600000000     0.198838   
C        C      0.958800000000     0.947300000000     0.284600000000     0.198838   
C        C      0.612700000000     0.355200000000     0.282800000000     0.198838   
C        C      0.070900000000     0.310000000000     0.385400000000     0.198838   
C        C      0.170000000000     0.376000000000     0.427300000000     0.198838   
C        C      0.531100000000     0.809900000000     0.545600000000     0.198838   
C        C      0.484600000000     0.846400000000     0.481600000000     0.198838   
C        C      0.528700000000     0.984100000000     0.457400000000     0.198838   
C        C      0.621400000000     0.081600000000     0.501200000000     0.198838   
C        C      0.669300000000     0.044000000000     0.565400000000     0.198838   
C        C      0.623800000000     0.907900000000     0.589500000000     0.198838   
C        C      0.675200000000     0.867000000000     0.660300000000     0.198838   
C        C      0.479400000000     0.025600000000     0.386500000000     0.198838   
C        C      0.140600000000     0.288000000000     0.726000000000     0.198838   
C        C      0.217100000000     0.427600000000     0.725800000000     0.198838   
C        C      0.292700000000     0.492200000000     0.784300000000     0.198838   
C        C      0.286500000000     0.411200000000     0.842900000000     0.198838   
C        C      0.205600000000     0.270400000000     0.842800000000     0.198838   
C        C      0.132300000000     0.206600000000     0.784600000000     0.198838   
C        C      0.041200000000     0.052700000000     0.784600000000     0.198838   
C        C      0.387300000000     0.644800000000     0.782800000000     0.198838   
C        C      0.929100000000     0.690000000000     0.885400000000     0.198838   
C        C      0.830000000000     0.624000000000     0.927300000000     0.198838   
O        O      0.393500000000     0.086500000000     0.211580000000    -0.203506   
O        O      0.219700000000     0.203800000000     0.166100000000    -0.203506   
O        O      0.627000000000     0.900500000000     0.885530000000    -0.203506   
O        O      0.450000000000     0.016900000000     0.837010000000    -0.203506   
O        O      0.109100000000     0.967200000000     0.295000000000    -0.203506   
O        O      0.876600000000     0.040500000000     0.274200000000    -0.203506   
O        O      0.695900000000     0.263800000000     0.270200000000    -0.203506   
O        O      0.461200000000     0.341100000000     0.293300000000    -0.203506   
O        O      0.102800000000     0.265300000000     0.318800000000    -0.203506   
O        O      0.606500000000     0.913500000000     0.711580000000    -0.203506   
O        O      0.780300000000     0.796200000000     0.666100000000    -0.203506   
O        O      0.373000000000     0.099500000000     0.385530000000    -0.203506   
O        O      0.550000000000     0.983100000000     0.337010000000    -0.203506   
O        O      0.890900000000     0.032800000000     0.795000000000    -0.203506   
O        O      0.123400000000     0.959500000000     0.774200000000    -0.203506   
O        O      0.304100000000     0.736200000000     0.770200000000    -0.203506   
O        O      0.538800000000     0.658900000000     0.793300000000    -0.203506   
O        O      0.897200000000     0.734700000000     0.818800000000    -0.203506   
F        F      0.518700000000     0.323800000000     0.066000000000    -0.345491   
F        F      0.605700000000     0.251800000000     0.940620000000    -0.345491   
F        F      0.330100000000     0.784100000000     0.980460000000    -0.345491   
F        F      0.236400000000     0.857900000000     0.105100000000    -0.345491   
F        F      0.926300000000     0.770300000000     0.166620000000    -0.345491   
F        F      0.779500000000     0.499100000000     0.167160000000    -0.345491   
F        F      0.646200000000     0.533200000000     0.401960000000    -0.345491   
F        F      0.800300000000     0.803700000000     0.401790000000    -0.345491   
F        F      0.481300000000     0.676200000000     0.566000000000    -0.345491   
F        F      0.394300000000     0.748200000000     0.440620000000    -0.345491   
F        F      0.669900000000     0.215900000000     0.480460000000    -0.345491   
F        F      0.763600000000     0.142100000000     0.605100000000    -0.345491   
F        F      0.073700000000     0.229700000000     0.666620000000    -0.345491   
F        F      0.220500000000     0.500900000000     0.667160000000    -0.345491   
F        F      0.353800000000     0.466800000000     0.901960000000    -0.345491   
F        F      0.199700000000     0.196300000000     0.901790000000    -0.345491   


