data_PAMVEG_original

_audit_creation_method RASPA-1.0
_audit_creation_date 2022-1-29
_audit_author_name 'Felipe Lopes de Oliveira <felipe.lopes.oliveira@ibm.com>'

_cell_length_a    6.5568
_cell_length_b    15.078
_cell_length_c    20.543
_cell_angle_alpha 90
_cell_angle_beta  90
_cell_angle_gamma 90
_cell_volume      2030.95

_symmetry_cell_setting          triclinic
_symmetry_space_group_name_Hall 'P 1'
_symmetry_space_group_name_H-M  'P 1'
_symmetry_Int_Tables_number     1

_symmetry_equiv_pos_as_xyz 'x,y,z'

loop_
_atom_site_label
_atom_site_type_symbol
_atom_site_fract_x
_atom_site_fract_y
_atom_site_fract_z
_atom_site_charge
Zn       Zn     0.851320000000     0.486380000000     0.812170000000     0.419354   
Zn       Zn     0.648680000000     0.513620000000     0.312170000000     0.419354   
Zn       Zn     0.148680000000     0.986380000000     0.687830000000     0.419354   
Zn       Zn     0.351320000000     0.013620000000     0.187830000000     0.419354   
H        H      0.201700000000     0.403200000000     0.723500000000     0.0609861  
H        H      0.879400000000     0.281400000000     0.857600000000     0.0609861  
H        H      0.131800000000     0.172700000000     0.817700000000     0.0609861  
H        H      0.371100000000     0.266600000000     0.671900000000     0.0609861  
H        H      0.328000000000     0.173900000000     0.702000000000     0.0609861  
H        H      0.608800000000     0.300200000000     0.753000000000     0.0609861  
H        H      0.554700000000     0.212900000000     0.789400000000     0.0609861  
H        H      0.804000000000     0.087900000000     0.769600000000     0.0609861  
H        H      0.769600000000     0.266100000000     0.617100000000     0.0609861  
H        H      0.049900000000     0.159700000000     0.600100000000     0.0609861  
H        H      0.041400000000     0.463600000000     0.143900000000     0.0609861  
H        H      0.926900000000     0.542300000000     0.106800000000     0.0609861  
H        H      0.828700000000     0.359800000000     0.093900000000     0.0609861  
H        H      0.707300000000     0.437800000000     0.058100000000     0.0609861  
H        H      0.018800000000     0.476100000000     0.002000000000     0.0609861  
H        H      0.927800000000     0.381800000000     0.981700000000     0.0609861  
H        H      0.263900000000     0.407000000000     0.068200000000     0.0609861  
H        H      0.168600000000     0.311800000000     0.052000000000     0.0609861  
H        H      0.269300000000     0.328300000000     0.940700000000     0.0609861  
H        H      0.462200000000     0.330100000000     0.988400000000     0.0609861  
H        H      0.278400000000     0.480900000000     0.928600000000     0.0609861  
H        H      0.447700000000     0.490300000000     0.984100000000     0.0609861  
H        H      0.298300000000     0.596800000000     0.223500000000     0.0609861  
H        H      0.620600000000     0.718600000000     0.357600000000     0.0609861  
H        H      0.368200000000     0.827300000000     0.317700000000     0.0609861  
H        H      0.128900000000     0.733400000000     0.171900000000     0.0609861  
H        H      0.172000000000     0.826100000000     0.202000000000     0.0609861  
H        H      0.891200000000     0.699800000000     0.253000000000     0.0609861  
H        H      0.945300000000     0.787100000000     0.289400000000     0.0609861  
H        H      0.696000000000     0.912100000000     0.269600000000     0.0609861  
H        H      0.730400000000     0.733900000000     0.117100000000     0.0609861  
H        H      0.450100000000     0.840300000000     0.100100000000     0.0609861  
H        H      0.458600000000     0.536400000000     0.643900000000     0.0609861  
H        H      0.573100000000     0.457700000000     0.606800000000     0.0609861  
H        H      0.671300000000     0.640200000000     0.593900000000     0.0609861  
H        H      0.792700000000     0.562200000000     0.558100000000     0.0609861  
H        H      0.481200000000     0.523900000000     0.502000000000     0.0609861  
H        H      0.572200000000     0.618200000000     0.481700000000     0.0609861  
H        H      0.236100000000     0.593000000000     0.568200000000     0.0609861  
H        H      0.331400000000     0.688200000000     0.552000000000     0.0609861  
H        H      0.230700000000     0.671700000000     0.440700000000     0.0609861  
H        H      0.037800000000     0.669900000000     0.488400000000     0.0609861  
H        H      0.221600000000     0.519100000000     0.428600000000     0.0609861  
H        H      0.052300000000     0.509700000000     0.484100000000     0.0609861  
H        H      0.798300000000     0.903200000000     0.776500000000     0.0609861  
H        H      0.120600000000     0.781400000000     0.642400000000     0.0609861  
H        H      0.868200000000     0.672700000000     0.682300000000     0.0609861  
H        H      0.628900000000     0.766600000000     0.828100000000     0.0609861  
H        H      0.672000000000     0.673900000000     0.798000000000     0.0609861  
H        H      0.391200000000     0.800200000000     0.747000000000     0.0609861  
H        H      0.445300000000     0.712900000000     0.710600000000     0.0609861  
H        H      0.196000000000     0.587900000000     0.730400000000     0.0609861  
H        H      0.230400000000     0.766100000000     0.882900000000     0.0609861  
H        H      0.950100000000     0.659700000000     0.899900000000     0.0609861  
H        H      0.958600000000     0.963600000000     0.356100000000     0.0609861  
H        H      0.073100000000     0.042300000000     0.393200000000     0.0609861  
H        H      0.171300000000     0.859800000000     0.406100000000     0.0609861  
H        H      0.292700000000     0.937800000000     0.441900000000     0.0609861  
H        H      0.981200000000     0.976100000000     0.498000000000     0.0609861  
H        H      0.072200000000     0.881800000000     0.518300000000     0.0609861  
H        H      0.736100000000     0.907000000000     0.431800000000     0.0609861  
H        H      0.831400000000     0.811800000000     0.448000000000     0.0609861  
H        H      0.730700000000     0.828300000000     0.559300000000     0.0609861  
H        H      0.537800000000     0.830100000000     0.511600000000     0.0609861  
H        H      0.721600000000     0.980900000000     0.571400000000     0.0609861  
H        H      0.552300000000     0.990300000000     0.515900000000     0.0609861  
H        H      0.701700000000     0.096800000000     0.276500000000     0.0609861  
H        H      0.379400000000     0.218600000000     0.142400000000     0.0609861  
H        H      0.631800000000     0.327300000000     0.182300000000     0.0609861  
H        H      0.871100000000     0.233400000000     0.328100000000     0.0609861  
H        H      0.828000000000     0.326100000000     0.298000000000     0.0609861  
H        H      0.108800000000     0.199800000000     0.247000000000     0.0609861  
H        H      0.054700000000     0.287100000000     0.210600000000     0.0609861  
H        H      0.304000000000     0.412100000000     0.230400000000     0.0609861  
H        H      0.269600000000     0.233900000000     0.382900000000     0.0609861  
H        H      0.549900000000     0.340300000000     0.399900000000     0.0609861  
H        H      0.541400000000     0.036400000000     0.856100000000     0.0609861  
H        H      0.426900000000     0.957700000000     0.893200000000     0.0609861  
H        H      0.328700000000     0.140200000000     0.906100000000     0.0609861  
H        H      0.207300000000     0.062200000000     0.941900000000     0.0609861  
H        H      0.518800000000     0.023900000000     0.998000000000     0.0609861  
H        H      0.427800000000     0.118200000000     0.018300000000     0.0609861  
H        H      0.763900000000     0.093000000000     0.931800000000     0.0609861  
H        H      0.668600000000     0.188200000000     0.948000000000     0.0609861  
H        H      0.769300000000     0.171700000000     0.059300000000     0.0609861  
H        H      0.962200000000     0.169900000000     0.011600000000     0.0609861  
H        H      0.778400000000     0.019100000000     0.071400000000     0.0609861  
H        H      0.947700000000     0.009700000000     0.015900000000     0.0609861  
C        C      0.151900000000     0.359900000000     0.753900000000     0.000737856
C        C      0.985500000000     0.295000000000     0.827680000000     0.000737856
C        C      0.119100000000     0.236300000000     0.804460000000     0.000737856
C        C      0.362100000000     0.234300000000     0.712000000000     0.000737856
C        C      0.567300000000     0.239700000000     0.747200000000     0.000737856
C        C      0.819400000000     0.116400000000     0.728100000000     0.000737856
C        C      0.795200000000     0.210300000000     0.641990000000     0.000737856
C        C      0.949800000000     0.154300000000     0.633260000000     0.000737856
C        C      0.759500000000     0.492110000000     0.183520000000     0.000737856
C        C      0.907600000000     0.483100000000     0.126680000000     0.000737856
C        C      0.842800000000     0.419700000000     0.074680000000     0.000737856
C        C      0.992400000000     0.415100000000     0.017730000000     0.000737856
C        C      0.194900000000     0.371700000000     0.034030000000     0.000737856
C        C      0.338300000000     0.363000000000     0.975130000000     0.000737856
C        C      0.400000000000     0.452300000000     0.947900000000     0.000737856
C        C      0.565500000000     0.447700000000     0.896970000000     0.000737856
C        C      0.348100000000     0.640100000000     0.253900000000     0.000737856
C        C      0.514500000000     0.705000000000     0.327680000000     0.000737856
C        C      0.380900000000     0.763700000000     0.304460000000     0.000737856
C        C      0.137900000000     0.765700000000     0.212000000000     0.000737856
C        C      0.932700000000     0.760300000000     0.247200000000     0.000737856
C        C      0.680600000000     0.883600000000     0.228100000000     0.000737856
C        C      0.704800000000     0.789700000000     0.141990000000     0.000737856
C        C      0.550200000000     0.845700000000     0.133260000000     0.000737856
C        C      0.740500000000     0.507890000000     0.683520000000     0.000737856
C        C      0.592400000000     0.516900000000     0.626680000000     0.000737856
C        C      0.657200000000     0.580300000000     0.574680000000     0.000737856
C        C      0.507600000000     0.584900000000     0.517730000000     0.000737856
C        C      0.305100000000     0.628300000000     0.534030000000     0.000737856
C        C      0.161700000000     0.637000000000     0.475130000000     0.000737856
C        C      0.100000000000     0.547700000000     0.447900000000     0.000737856
C        C      0.934500000000     0.552300000000     0.396970000000     0.000737856
C        C      0.848100000000     0.859900000000     0.746100000000     0.000737856
C        C      0.014500000000     0.795000000000     0.672320000000     0.000737856
C        C      0.880900000000     0.736300000000     0.695540000000     0.000737856
C        C      0.637900000000     0.734300000000     0.788000000000     0.000737856
C        C      0.432700000000     0.739700000000     0.752800000000     0.000737856
C        C      0.180600000000     0.616400000000     0.771900000000     0.000737856
C        C      0.204800000000     0.710300000000     0.858010000000     0.000737856
C        C      0.050200000000     0.654300000000     0.866740000000     0.000737856
C        C      0.240500000000     0.992110000000     0.316480000000     0.000737856
C        C      0.092400000000     0.983100000000     0.373320000000     0.000737856
C        C      0.157200000000     0.919700000000     0.425320000000     0.000737856
C        C      0.007600000000     0.915100000000     0.482270000000     0.000737856
C        C      0.805100000000     0.871700000000     0.465970000000     0.000737856
C        C      0.661700000000     0.863000000000     0.524870000000     0.000737856
C        C      0.600000000000     0.952300000000     0.552100000000     0.000737856
C        C      0.434500000000     0.947700000000     0.603030000000     0.000737856
C        C      0.651900000000     0.140100000000     0.246100000000     0.000737856
C        C      0.485500000000     0.205000000000     0.172320000000     0.000737856
C        C      0.619100000000     0.263700000000     0.195540000000     0.000737856
C        C      0.862100000000     0.265700000000     0.288000000000     0.000737856
C        C      0.067300000000     0.260300000000     0.252800000000     0.000737856
C        C      0.319400000000     0.383600000000     0.271900000000     0.000737856
C        C      0.295200000000     0.289700000000     0.358010000000     0.000737856
C        C      0.449800000000     0.345700000000     0.366740000000     0.000737856
C        C      0.259500000000     0.007890000000     0.816480000000     0.000737856
C        C      0.407600000000     0.016900000000     0.873320000000     0.000737856
C        C      0.342800000000     0.080300000000     0.925320000000     0.000737856
C        C      0.492400000000     0.084900000000     0.982270000000     0.000737856
C        C      0.694900000000     0.128300000000     0.965970000000     0.000737856
C        C      0.838300000000     0.137000000000     0.024870000000     0.000737856
C        C      0.900000000000     0.047700000000     0.052100000000     0.000737856
C        C      0.065500000000     0.052300000000     0.103030000000     0.000737856
N        N      0.022000000000     0.376860000000     0.802720000000    -0.134493   
N        N      0.203800000000     0.273600000000     0.753600000000    -0.134493   
N        N      0.722800000000     0.190000000000     0.708900000000    -0.134493   
N        N      0.945000000000     0.087830000000     0.678600000000    -0.134493   
N        N      0.478000000000     0.623140000000     0.302720000000    -0.134493   
N        N      0.296200000000     0.726400000000     0.253600000000    -0.134493   
N        N      0.777200000000     0.810000000000     0.208900000000    -0.134493   
N        N      0.555000000000     0.912170000000     0.178600000000    -0.134493   
N        N      0.978000000000     0.876860000000     0.697280000000    -0.134493   
N        N      0.796200000000     0.773600000000     0.746400000000    -0.134493   
N        N      0.277200000000     0.690000000000     0.791100000000    -0.134493   
N        N      0.055000000000     0.587830000000     0.821400000000    -0.134493   
N        N      0.522000000000     0.123140000000     0.197280000000    -0.134493   
N        N      0.703800000000     0.226400000000     0.246400000000    -0.134493   
N        N      0.222800000000     0.310000000000     0.291100000000    -0.134493   
N        N      0.445000000000     0.412170000000     0.321400000000    -0.134493   
O        O      0.839600000000     0.495210000000     0.239450000000    -0.308721   
O        O      0.573600000000     0.493720000000     0.174600000000    -0.308721   
O        O      0.677300000000     0.516330000000     0.889710000000    -0.308721   
O        O      0.590600000000     0.382050000000     0.863420000000    -0.308721   
O        O      0.660400000000     0.504790000000     0.739450000000    -0.308721   
O        O      0.926400000000     0.506280000000     0.674600000000    -0.308721   
O        O      0.822700000000     0.483670000000     0.389710000000    -0.308721   
O        O      0.909400000000     0.617950000000     0.363420000000    -0.308721   
O        O      0.160400000000     0.995210000000     0.260550000000    -0.308721   
O        O      0.426400000000     0.993720000000     0.325400000000    -0.308721   
O        O      0.322700000000     0.016330000000     0.610290000000    -0.308721   
O        O      0.409400000000     0.882050000000     0.636580000000    -0.308721   
O        O      0.339600000000     0.004790000000     0.760550000000    -0.308721   
O        O      0.073600000000     0.006280000000     0.825400000000    -0.308721   
O        O      0.177300000000     0.983670000000     0.110290000000    -0.308721   
O        O      0.090600000000     0.117950000000     0.136580000000    -0.308721   


