data_PASMUT_original

_audit_creation_method RASPA-1.0
_audit_creation_date 2022-1-28
_audit_author_name 'Felipe Lopes de Oliveira <felipe.lopes.oliveira@ibm.com>'

_cell_length_a    11.8113
_cell_length_b    13.8479
_cell_length_c    16.3344
_cell_angle_alpha 90
_cell_angle_beta  90
_cell_angle_gamma 112.851
_cell_volume      2462

_symmetry_cell_setting          triclinic
_symmetry_space_group_name_Hall 'P 1'
_symmetry_space_group_name_H-M  'P 1'
_symmetry_Int_Tables_number     1

_symmetry_equiv_pos_as_xyz 'x,y,z'

loop_
_atom_site_label
_atom_site_type_symbol
_atom_site_fract_x
_atom_site_fract_y
_atom_site_fract_z
_atom_site_charge
Zn       Zn     0.603310000000     0.599780000000     0.452620000000     0.412713   
Zn       Zn     0.744540000000     0.283450000000     0.454910000000     0.412713   
Zn       Zn     0.948120000000     0.872760000000     0.631310000000     0.412713   
Zn       Zn     0.896690000000     0.900220000000     0.952620000000     0.412713   
Zn       Zn     0.755460000000     0.216550000000     0.954910000000     0.412713   
Zn       Zn     0.551880000000     0.627240000000     0.131310000000     0.412713   
Zn       Zn     0.396690000000     0.400220000000     0.547380000000     0.412713   
Zn       Zn     0.255460000000     0.716550000000     0.545090000000     0.412713   
Zn       Zn     0.051880000000     0.127240000000     0.368690000000     0.412713   
Zn       Zn     0.103310000000     0.099780000000     0.047380000000     0.412713   
Zn       Zn     0.244540000000     0.783450000000     0.045090000000     0.412713   
Zn       Zn     0.448120000000     0.372760000000     0.868690000000     0.412713   
H        H      0.896600000000     0.461000000000     0.580700000000     0.0788327  
H        H      0.833200000000     0.394600000000     0.704800000000     0.0788327  
H        H      0.666400000000     0.371500000000     0.774500000000     0.0788327  
H        H      0.823800000000     0.519500000000     0.797400000000     0.0788327  
H        H      0.881800000000     0.677300000000     0.743700000000     0.0788327  
H        H      0.950800000000     0.562400000000     0.691600000000     0.0788327  
H        H      0.603400000000     0.039000000000     0.080700000000     0.0788327  
H        H      0.666800000000     0.105400000000     0.204800000000     0.0788327  
H        H      0.833600000000     0.128500000000     0.274500000000     0.0788327  
H        H      0.676200000000     0.980500000000     0.297400000000     0.0788327  
H        H      0.618200000000     0.822700000000     0.243700000000     0.0788327  
H        H      0.549200000000     0.937600000000     0.191600000000     0.0788327  
H        H      0.103400000000     0.539000000000     0.419300000000     0.0788327  
H        H      0.166800000000     0.605400000000     0.295200000000     0.0788327  
H        H      0.333600000000     0.628500000000     0.225500000000     0.0788327  
H        H      0.176200000000     0.480500000000     0.202600000000     0.0788327  
H        H      0.118200000000     0.322700000000     0.256300000000     0.0788327  
H        H      0.049200000000     0.437600000000     0.308400000000     0.0788327  
H        H      0.396600000000     0.961000000000     0.919300000000     0.0788327  
H        H      0.333200000000     0.894600000000     0.795200000000     0.0788327  
H        H      0.166400000000     0.871500000000     0.725500000000     0.0788327  
H        H      0.323800000000     0.019500000000     0.702600000000     0.0788327  
H        H      0.381800000000     0.177300000000     0.756300000000     0.0788327  
H        H      0.450800000000     0.062400000000     0.808400000000     0.0788327  
C        C      0.756200000000     0.492800000000     0.533840000000     0.118849   
C        C      0.833100000000     0.481100000000     0.604990000000     0.118849   
C        C      0.765900000000     0.395000000000     0.669840000000     0.118849   
C        C      0.682900000000     0.422500000000     0.729890000000     0.118849   
C        C      0.756300000000     0.530700000000     0.769680000000     0.118849   
C        C      0.823600000000     0.621200000000     0.710270000000     0.118849   
C        C      0.902400000000     0.584300000000     0.652540000000     0.118849   
C        C      0.705800000000     0.281300000000     0.641100000000     0.118849   
C        C      0.557800000000     0.404800000000     0.693890000000     0.118849   
C        C      0.692900000000     0.563400000000     0.839400000000     0.118849   
C        C      0.735700000000     0.665900000000     0.673510000000     0.118849   
C        C      0.002900000000     0.668600000000     0.603680000000     0.118849   
C        C      0.743800000000     0.007200000000     0.033840000000     0.118849   
C        C      0.666900000000     0.018900000000     0.104990000000     0.118849   
C        C      0.734100000000     0.105000000000     0.169840000000     0.118849   
C        C      0.817100000000     0.077500000000     0.229890000000     0.118849   
C        C      0.743700000000     0.969300000000     0.269680000000     0.118849   
C        C      0.676400000000     0.878800000000     0.210270000000     0.118849   
C        C      0.597600000000     0.915700000000     0.152540000000     0.118849   
C        C      0.794200000000     0.218700000000     0.141100000000     0.118849   
C        C      0.942200000000     0.095200000000     0.193890000000     0.118849   
C        C      0.807100000000     0.936600000000     0.339400000000     0.118849   
C        C      0.764300000000     0.834100000000     0.173510000000     0.118849   
C        C      0.497100000000     0.831400000000     0.103680000000     0.118849   
C        C      0.243800000000     0.507200000000     0.466160000000     0.118849   
C        C      0.166900000000     0.518900000000     0.395010000000     0.118849   
C        C      0.234100000000     0.605000000000     0.330160000000     0.118849   
C        C      0.317100000000     0.577500000000     0.270110000000     0.118849   
C        C      0.243700000000     0.469300000000     0.230320000000     0.118849   
C        C      0.176400000000     0.378800000000     0.289730000000     0.118849   
C        C      0.097600000000     0.415700000000     0.347460000000     0.118849   
C        C      0.294200000000     0.718700000000     0.358900000000     0.118849   
C        C      0.442200000000     0.595200000000     0.306110000000     0.118849   
C        C      0.307100000000     0.436600000000     0.160600000000     0.118849   
C        C      0.264300000000     0.334100000000     0.326490000000     0.118849   
C        C      0.997100000000     0.331400000000     0.396320000000     0.118849   
C        C      0.256200000000     0.992800000000     0.966160000000     0.118849   
C        C      0.333100000000     0.981100000000     0.895010000000     0.118849   
C        C      0.265900000000     0.895000000000     0.830160000000     0.118849   
C        C      0.182900000000     0.922500000000     0.770110000000     0.118849   
C        C      0.256300000000     0.030700000000     0.730320000000     0.118849   
C        C      0.323600000000     0.121200000000     0.789730000000     0.118849   
C        C      0.402400000000     0.084300000000     0.847460000000     0.118849   
C        C      0.205800000000     0.781300000000     0.858900000000     0.118849   
C        C      0.057800000000     0.904800000000     0.806110000000     0.118849   
C        C      0.192900000000     0.063400000000     0.660600000000     0.118849   
C        C      0.235700000000     0.165900000000     0.826490000000     0.118849   
C        C      0.502900000000     0.168600000000     0.896320000000     0.118849   
O        O      0.734200000000     0.573920000000     0.528370000000    -0.261444   
O        O      0.722100000000     0.421380000000     0.478710000000    -0.261444   
O        O      0.744100000000     0.254000000000     0.576030000000    -0.261444   
O        O      0.630000000000     0.217720000000     0.687670000000    -0.261444   
O        O      0.542100000000     0.394530000000     0.617820000000    -0.261444   
O        O      0.470000000000     0.395030000000     0.743310000000    -0.261444   
O        O      0.617900000000     0.494920000000     0.885410000000    -0.261444   
O        O      0.728300000000     0.659290000000     0.853710000000    -0.261444   
O        O      0.622900000000     0.613980000000     0.682680000000    -0.261444   
O        O      0.777400000000     0.754870000000     0.639060000000    -0.261444   
O        O      0.026100000000     0.763620000000     0.614840000000    -0.261444   
O        O      0.068400000000     0.636230000000     0.559540000000    -0.261444   
O        O      0.765800000000     0.926080000000     0.028370000000    -0.261444   
O        O      0.777900000000     0.078620000000     0.978710000000    -0.261444   
O        O      0.755900000000     0.246000000000     0.076030000000    -0.261444   
O        O      0.870000000000     0.282280000000     0.187670000000    -0.261444   
O        O      0.957900000000     0.105470000000     0.117820000000    -0.261444   
O        O      0.030000000000     0.104970000000     0.243310000000    -0.261444   
O        O      0.882100000000     0.005080000000     0.385410000000    -0.261444   
O        O      0.771700000000     0.840710000000     0.353710000000    -0.261444   
O        O      0.877100000000     0.886020000000     0.182680000000    -0.261444   
O        O      0.722600000000     0.745130000000     0.139060000000    -0.261444   
O        O      0.473900000000     0.736380000000     0.114840000000    -0.261444   
O        O      0.431600000000     0.863770000000     0.059540000000    -0.261444   
O        O      0.265800000000     0.426080000000     0.471630000000    -0.261444   
O        O      0.277900000000     0.578620000000     0.521290000000    -0.261444   
O        O      0.255900000000     0.746000000000     0.423970000000    -0.261444   
O        O      0.370000000000     0.782280000000     0.312330000000    -0.261444   
O        O      0.457900000000     0.605470000000     0.382180000000    -0.261444   
O        O      0.530000000000     0.604970000000     0.256690000000    -0.261444   
O        O      0.382100000000     0.505080000000     0.114590000000    -0.261444   
O        O      0.271700000000     0.340710000000     0.146290000000    -0.261444   
O        O      0.377100000000     0.386020000000     0.317320000000    -0.261444   
O        O      0.222600000000     0.245130000000     0.360940000000    -0.261444   
O        O      0.973900000000     0.236380000000     0.385160000000    -0.261444   
O        O      0.931600000000     0.363770000000     0.440460000000    -0.261444   
O        O      0.234200000000     0.073920000000     0.971630000000    -0.261444   
O        O      0.222100000000     0.921380000000     0.021290000000    -0.261444   
O        O      0.244100000000     0.754000000000     0.923970000000    -0.261444   
O        O      0.130000000000     0.717720000000     0.812330000000    -0.261444   
O        O      0.042100000000     0.894530000000     0.882180000000    -0.261444   
O        O      0.970000000000     0.895030000000     0.756690000000    -0.261444   
O        O      0.117900000000     0.994920000000     0.614590000000    -0.261444   
O        O      0.228300000000     0.159290000000     0.646290000000    -0.261444   
O        O      0.122900000000     0.113980000000     0.817320000000    -0.261444   
O        O      0.277400000000     0.254870000000     0.860940000000    -0.261444   
O        O      0.526100000000     0.263620000000     0.885160000000    -0.261444   
O        O      0.568400000000     0.136230000000     0.940460000000    -0.261444   


