data_PEGBEK01_original

_audit_creation_method RASPA-1.0
_audit_creation_date 2022-1-31
_audit_author_name 'Felipe Lopes de Oliveira <felipe.lopes.oliveira@ibm.com>'

_cell_length_a    10.68
_cell_length_b    12.356
_cell_length_c    17.104
_cell_angle_alpha 90
_cell_angle_beta  95.47
_cell_angle_gamma 90
_cell_volume      2246.8

_symmetry_cell_setting          triclinic
_symmetry_space_group_name_Hall 'P 1'
_symmetry_space_group_name_H-M  'P 1'
_symmetry_Int_Tables_number     1

_symmetry_equiv_pos_as_xyz 'x,y,z'

loop_
_atom_site_label
_atom_site_type_symbol
_atom_site_fract_x
_atom_site_fract_y
_atom_site_fract_z
_atom_site_charge
Zn       Zn     0.272890000000     0.263900000000     0.398970000000     0.342878   
Zn       Zn     0.792930000000     0.255150000000     0.543000000000     0.342878   
Zn       Zn     0.227110000000     0.763900000000     0.101030000000     0.342878   
Zn       Zn     0.707070000000     0.755150000000     0.957000000000     0.342878   
Zn       Zn     0.727110000000     0.736100000000     0.601030000000     0.342878   
Zn       Zn     0.207070000000     0.744850000000     0.457000000000     0.342878   
Zn       Zn     0.772890000000     0.236100000000     0.898970000000     0.342878   
Zn       Zn     0.292930000000     0.244850000000     0.043000000000     0.342878   
H        H      0.932600000000     0.362600000000     0.787500000000     0.172535   
H        H      0.990900000000     0.318100000000     0.711000000000     0.172535   
H        H      0.883600000000     0.408800000000     0.702700000000     0.172535   
H        H      0.520500000000     0.055200000000     0.643500000000     0.172535   
H        H      0.642000000000     0.015200000000     0.603900000000     0.172535   
H        H      0.527700000000     0.316700000000     0.336900000000     0.172535   
H        H      0.639000000000     0.363400000000     0.396700000000     0.172535   
H        H      0.660100000000     0.255200000000     0.348200000000     0.172535   
H        H      0.982600000000     0.004500000000     0.327200000000     0.172535   
H        H      0.069000000000     0.094600000000     0.292000000000     0.172535   
H        H      0.130200000000     0.008500000000     0.354300000000     0.172535   
H        H      0.173900000000     0.304300000000     0.583800000000     0.172535   
H        H      0.042800000000     0.367600000000     0.574000000000     0.172535   
H        H      0.382700000000     0.614800000000     0.364000000000     0.172535   
H        H      0.464300000000     0.512300000000     0.395400000000     0.172535   
H        H      0.358600000000     0.499100000000     0.323200000000     0.172535   
H        H      0.567400000000     0.862600000000     0.712500000000     0.172535   
H        H      0.509100000000     0.818100000000     0.789000000000     0.172535   
H        H      0.616400000000     0.908800000000     0.797300000000     0.172535   
H        H      0.979500000000     0.555200000000     0.856500000000     0.172535   
H        H      0.858000000000     0.515200000000     0.896100000000     0.172535   
H        H      0.972300000000     0.816700000000     0.163100000000     0.172535   
H        H      0.861000000000     0.863400000000     0.103300000000     0.172535   
H        H      0.839900000000     0.755200000000     0.151800000000     0.172535   
H        H      0.517400000000     0.504500000000     0.172800000000     0.172535   
H        H      0.431000000000     0.594600000000     0.208000000000     0.172535   
H        H      0.369800000000     0.508500000000     0.145700000000     0.172535   
H        H      0.326100000000     0.804300000000     0.916200000000     0.172535   
H        H      0.457200000000     0.867600000000     0.926000000000     0.172535   
H        H      0.117300000000     0.114800000000     0.136000000000     0.172535   
H        H      0.035700000000     0.012300000000     0.104600000000     0.172535   
H        H      0.141400000000     0.999100000000     0.176800000000     0.172535   
H        H      0.067400000000     0.637400000000     0.212500000000     0.172535   
H        H      0.009100000000     0.681900000000     0.289000000000     0.172535   
H        H      0.116400000000     0.591200000000     0.297300000000     0.172535   
H        H      0.479500000000     0.944800000000     0.356500000000     0.172535   
H        H      0.358000000000     0.984800000000     0.396100000000     0.172535   
H        H      0.472300000000     0.683300000000     0.663100000000     0.172535   
H        H      0.361000000000     0.636600000000     0.603300000000     0.172535   
H        H      0.339900000000     0.744800000000     0.651800000000     0.172535   
H        H      0.017400000000     0.995500000000     0.672800000000     0.172535   
H        H      0.931000000000     0.905400000000     0.708000000000     0.172535   
H        H      0.869800000000     0.991500000000     0.645700000000     0.172535   
H        H      0.826100000000     0.695700000000     0.416200000000     0.172535   
H        H      0.957200000000     0.632400000000     0.426000000000     0.172535   
H        H      0.617300000000     0.385200000000     0.636000000000     0.172535   
H        H      0.535700000000     0.487700000000     0.604600000000     0.172535   
H        H      0.641400000000     0.500900000000     0.676800000000     0.172535   
H        H      0.432600000000     0.137400000000     0.287500000000     0.172535   
H        H      0.490900000000     0.181900000000     0.211000000000     0.172535   
H        H      0.383600000000     0.091200000000     0.202700000000     0.172535   
H        H      0.020500000000     0.444800000000     0.143500000000     0.172535   
H        H      0.142000000000     0.484800000000     0.103900000000     0.172535   
H        H      0.027700000000     0.183300000000     0.836900000000     0.172535   
H        H      0.139000000000     0.136600000000     0.896700000000     0.172535   
H        H      0.160100000000     0.244800000000     0.848200000000     0.172535   
H        H      0.482600000000     0.495500000000     0.827200000000     0.172535   
H        H      0.569000000000     0.405400000000     0.792000000000     0.172535   
H        H      0.630200000000     0.491500000000     0.854300000000     0.172535   
H        H      0.673900000000     0.195700000000     0.083800000000     0.172535   
H        H      0.542800000000     0.132400000000     0.074000000000     0.172535   
H        H      0.882700000000     0.885200000000     0.864000000000     0.172535   
H        H      0.964300000000     0.987700000000     0.895400000000     0.172535   
H        H      0.858600000000     0.000900000000     0.823200000000     0.172535   
C        C      0.914200000000     0.344300000000     0.731890000000    -0.0958134  
C        C      0.815900000000     0.258000000000     0.723400000000    -0.0958134  
C        C      0.676800000000     0.147000000000     0.675290000000    -0.0958134  
C        C      0.594500000000     0.080100000000     0.617780000000    -0.0958134  
C        C      0.549500000000     0.139200000000     0.543720000000    -0.0958134  
C        C      0.553200000000     0.231600000000     0.438960000000    -0.0958134  
C        C      0.598900000000     0.297300000000     0.374720000000    -0.0958134  
C        C      0.055300000000     0.052200000000     0.338800000000    -0.0958134  
C        C      0.031300000000     0.126400000000     0.404010000000    -0.0958134  
C        C      0.055300000000     0.249500000000     0.491190000000    -0.0958134  
C        C      0.110300000000     0.336900000000     0.544860000000    -0.0958134  
C        C      0.170500000000     0.426600000000     0.503430000000    -0.0958134  
C        C      0.285600000000     0.511000000000     0.429170000000    -0.0958134  
C        C      0.381000000000     0.536500000000     0.373100000000    -0.0958134  
C        C      0.585800000000     0.844300000000     0.768110000000    -0.0958134  
C        C      0.684100000000     0.758000000000     0.776600000000    -0.0958134  
C        C      0.823200000000     0.647000000000     0.824710000000    -0.0958134  
C        C      0.905500000000     0.580100000000     0.882220000000    -0.0958134  
C        C      0.950500000000     0.639200000000     0.956280000000    -0.0958134  
C        C      0.946800000000     0.731600000000     0.061040000000    -0.0958134  
C        C      0.901100000000     0.797300000000     0.125280000000    -0.0958134  
C        C      0.444700000000     0.552200000000     0.161200000000    -0.0958134  
C        C      0.468700000000     0.626400000000     0.095990000000    -0.0958134  
C        C      0.444700000000     0.749500000000     0.008810000000    -0.0958134  
C        C      0.389700000000     0.836900000000     0.955140000000    -0.0958134  
C        C      0.329500000000     0.926600000000     0.996570000000    -0.0958134  
C        C      0.214400000000     0.011000000000     0.070830000000    -0.0958134  
C        C      0.119000000000     0.036500000000     0.126900000000    -0.0958134  
C        C      0.085800000000     0.655700000000     0.268110000000    -0.0958134  
C        C      0.184100000000     0.742000000000     0.276600000000    -0.0958134  
C        C      0.323200000000     0.853000000000     0.324710000000    -0.0958134  
C        C      0.405500000000     0.919900000000     0.382220000000    -0.0958134  
C        C      0.450500000000     0.860800000000     0.456280000000    -0.0958134  
C        C      0.446800000000     0.768400000000     0.561040000000    -0.0958134  
C        C      0.401100000000     0.702700000000     0.625280000000    -0.0958134  
C        C      0.944700000000     0.947800000000     0.661200000000    -0.0958134  
C        C      0.968700000000     0.873600000000     0.595990000000    -0.0958134  
C        C      0.944700000000     0.750500000000     0.508810000000    -0.0958134  
C        C      0.889700000000     0.663100000000     0.455140000000    -0.0958134  
C        C      0.829500000000     0.573400000000     0.496570000000    -0.0958134  
C        C      0.714400000000     0.489000000000     0.570830000000    -0.0958134  
C        C      0.619000000000     0.463500000000     0.626900000000    -0.0958134  
C        C      0.414200000000     0.155700000000     0.231890000000    -0.0958134  
C        C      0.315900000000     0.242000000000     0.223400000000    -0.0958134  
C        C      0.176800000000     0.353000000000     0.175290000000    -0.0958134  
C        C      0.094500000000     0.419900000000     0.117780000000    -0.0958134  
C        C      0.049500000000     0.360800000000     0.043720000000    -0.0958134  
C        C      0.053200000000     0.268400000000     0.938960000000    -0.0958134  
C        C      0.098900000000     0.202700000000     0.874720000000    -0.0958134  
C        C      0.555300000000     0.447800000000     0.838800000000    -0.0958134  
C        C      0.531300000000     0.373600000000     0.904010000000    -0.0958134  
C        C      0.555300000000     0.250500000000     0.991190000000    -0.0958134  
C        C      0.610300000000     0.163100000000     0.044860000000    -0.0958134  
C        C      0.670500000000     0.073400000000     0.003430000000    -0.0958134  
C        C      0.785600000000     0.989000000000     0.929170000000    -0.0958134  
C        C      0.881000000000     0.963500000000     0.873100000000    -0.0958134  
N        N      0.116600000000     0.201200000000     0.435410000000    -0.175411   
N        N      0.925500000000     0.127600000000     0.437430000000    -0.175411   
N        N      0.941800000000     0.208300000000     0.494110000000    -0.175411   
N        N      0.255300000000     0.409940000000     0.449340000000    -0.175411   
N        N      0.149100000000     0.529760000000     0.515820000000    -0.175411   
N        N      0.224400000000     0.584290000000     0.466770000000    -0.175411   
N        N      0.434500000000     0.201350000000     0.444570000000    -0.175411   
N        N      0.431600000000     0.141370000000     0.513160000000    -0.175411   
N        N      0.629100000000     0.193300000000     0.499800000000    -0.175411   
N        N      0.768800000000     0.215650000000     0.654810000000    -0.175411   
N        N      0.668200000000     0.144000000000     0.751340000000    -0.175411   
N        N      0.759200000000     0.217200000000     0.782580000000    -0.175411   
N        N      0.383400000000     0.701200000000     0.064590000000    -0.175411   
N        N      0.574500000000     0.627600000000     0.062570000000    -0.175411   
N        N      0.558200000000     0.708300000000     0.005890000000    -0.175411   
N        N      0.244700000000     0.909940000000     0.050660000000    -0.175411   
N        N      0.350900000000     0.029760000000     0.984180000000    -0.175411   
N        N      0.275600000000     0.084290000000     0.033230000000    -0.175411   
N        N      0.065500000000     0.701350000000     0.055430000000    -0.175411   
N        N      0.068400000000     0.641370000000     0.986840000000    -0.175411   
N        N      0.870900000000     0.693300000000     0.000200000000    -0.175411   
N        N      0.731200000000     0.715650000000     0.845190000000    -0.175411   
N        N      0.831800000000     0.644000000000     0.748660000000    -0.175411   
N        N      0.740800000000     0.717200000000     0.717420000000    -0.175411   
N        N      0.883400000000     0.798800000000     0.564590000000    -0.175411   
N        N      0.074500000000     0.872400000000     0.562570000000    -0.175411   
N        N      0.058200000000     0.791700000000     0.505890000000    -0.175411   
N        N      0.744700000000     0.590060000000     0.550660000000    -0.175411   
N        N      0.850900000000     0.470240000000     0.484180000000    -0.175411   
N        N      0.775600000000     0.415710000000     0.533230000000    -0.175411   
N        N      0.565500000000     0.798650000000     0.555430000000    -0.175411   
N        N      0.568400000000     0.858630000000     0.486840000000    -0.175411   
N        N      0.370900000000     0.806700000000     0.500200000000    -0.175411   
N        N      0.231200000000     0.784350000000     0.345190000000    -0.175411   
N        N      0.331800000000     0.856000000000     0.248660000000    -0.175411   
N        N      0.240800000000     0.782800000000     0.217420000000    -0.175411   
N        N      0.616600000000     0.298800000000     0.935410000000    -0.175411   
N        N      0.425500000000     0.372400000000     0.937430000000    -0.175411   
N        N      0.441800000000     0.291700000000     0.994110000000    -0.175411   
N        N      0.755300000000     0.090060000000     0.949340000000    -0.175411   
N        N      0.649100000000     0.970240000000     0.015820000000    -0.175411   
N        N      0.724400000000     0.915710000000     0.966770000000    -0.175411   
N        N      0.934500000000     0.298650000000     0.944570000000    -0.175411   
N        N      0.931600000000     0.358630000000     0.013160000000    -0.175411   
N        N      0.129100000000     0.306700000000     0.999800000000    -0.175411   
N        N      0.268800000000     0.284350000000     0.154810000000    -0.175411   
N        N      0.168200000000     0.356000000000     0.251340000000    -0.175411   
N        N      0.259200000000     0.282800000000     0.282580000000    -0.175411   


