data_PEKKAS_original

_audit_creation_method RASPA-1.0
_audit_creation_date 2022-1-31
_audit_author_name 'Felipe Lopes de Oliveira <felipe.lopes.oliveira@ibm.com>'

_cell_length_a    9.0148
_cell_length_b    9.0148
_cell_length_c    11.4645
_cell_angle_alpha 90
_cell_angle_beta  90
_cell_angle_gamma 120
_cell_volume      806.86

_symmetry_cell_setting          triclinic
_symmetry_space_group_name_Hall 'P 1'
_symmetry_space_group_name_H-M  'P 1'
_symmetry_Int_Tables_number     1

_symmetry_equiv_pos_as_xyz 'x,y,z'

loop_
_atom_site_label
_atom_site_type_symbol
_atom_site_fract_x
_atom_site_fract_y
_atom_site_fract_z
_atom_site_charge
In       In     0.500000000000     0.000000000000     0.666670000000     2.49907    
In       In     0.500000000000     0.500000000000     0.000000000000     2.49907    
In       In     0.000000000000     0.500000000000     0.333330000000     2.49907    
C        C      0.791000000000     0.209000000000     0.500000000000     0.276122   
C        C      0.691550000000     0.308450000000     0.500000000000     0.276122   
C        C      0.418000000000     0.209000000000     0.833330000000     0.276122   
C        C      0.616900000000     0.308450000000     0.833330000000     0.276122   
C        C      0.791000000000     0.582000000000     0.166670000000     0.276122   
C        C      0.691550000000     0.383100000000     0.166670000000     0.276122   
C        C      0.209000000000     0.791000000000     0.500000000000     0.276122   
C        C      0.308450000000     0.691550000000     0.500000000000     0.276122   
C        C      0.582000000000     0.791000000000     0.833330000000     0.276122   
C        C      0.383100000000     0.691550000000     0.833330000000     0.276122   
C        C      0.209000000000     0.418000000000     0.166670000000     0.276122   
C        C      0.308450000000     0.616900000000     0.166670000000     0.276122   
O        O      0.734500000000     0.075200000000     0.562900000000    -0.450445   
O        O      0.556700000000     0.243500000000     0.556900000000    -0.450445   
O        O      0.340700000000     0.265500000000     0.896230000000    -0.450445   
O        O      0.686800000000     0.443300000000     0.890230000000    -0.450445   
O        O      0.924800000000     0.659300000000     0.229570000000    -0.450445   
O        O      0.756500000000     0.313200000000     0.223570000000    -0.450445   
O        O      0.265500000000     0.924800000000     0.562900000000    -0.450445   
O        O      0.443300000000     0.756500000000     0.556900000000    -0.450445   
O        O      0.659300000000     0.734500000000     0.896230000000    -0.450445   
O        O      0.313200000000     0.556700000000     0.890230000000    -0.450445   
O        O      0.075200000000     0.340700000000     0.229570000000    -0.450445   
O        O      0.243500000000     0.686800000000     0.223570000000    -0.450445   
O        O      0.659300000000     0.924800000000     0.770430000000    -0.450445   
O        O      0.313200000000     0.756500000000     0.776430000000    -0.450445   
O        O      0.075200000000     0.734500000000     0.437100000000    -0.450445   
O        O      0.243500000000     0.556700000000     0.443100000000    -0.450445   
O        O      0.265500000000     0.340700000000     0.103770000000    -0.450445   
O        O      0.443300000000     0.686800000000     0.109770000000    -0.450445   
O        O      0.340700000000     0.075200000000     0.770430000000    -0.450445   
O        O      0.686800000000     0.243500000000     0.776430000000    -0.450445   
O        O      0.924800000000     0.265500000000     0.437100000000    -0.450445   
O        O      0.756500000000     0.443300000000     0.443100000000    -0.450445   
O        O      0.734500000000     0.659300000000     0.103770000000    -0.450445   
O        O      0.556700000000     0.313200000000     0.109770000000    -0.450445   


