data_PENNUT_original

_audit_creation_method RASPA-1.0
_audit_creation_date 2022-1-31
_audit_author_name 'Felipe Lopes de Oliveira <felipe.lopes.oliveira@ibm.com>'

_cell_length_a    11.727
_cell_length_b    13.451
_cell_length_c    15.565
_cell_angle_alpha 113.39
_cell_angle_beta  98.71
_cell_angle_gamma 102.97
_cell_volume      2115.07

_symmetry_cell_setting          triclinic
_symmetry_space_group_name_Hall 'P 1'
_symmetry_space_group_name_H-M  'P 1'
_symmetry_Int_Tables_number     1

_symmetry_equiv_pos_as_xyz 'x,y,z'

loop_
_atom_site_label
_atom_site_type_symbol
_atom_site_fract_x
_atom_site_fract_y
_atom_site_fract_z
_atom_site_charge
Zn       Zn     0.348640000000     0.345720000000     0.652910000000     0.464667   
Zn       Zn     0.480420000000     0.808350000000     0.309400000000     0.464667   
Zn       Zn     0.076570000000     0.420300000000     0.688070000000     0.464667   
Zn       Zn     0.651360000000     0.654280000000     0.347090000000     0.464667   
Zn       Zn     0.519580000000     0.191650000000     0.690600000000     0.464667   
Zn       Zn     0.923430000000     0.579700000000     0.311930000000     0.464667   
H        H      0.103200000000     0.005700000000     0.372100000000     0.0853599  
H        H      0.900200000000     0.848900000000     0.298700000000     0.0853599  
H        H      0.551200000000     0.649300000000     0.953300000000     0.0853599  
H        H      0.662600000000     0.729900000000     0.131000000000     0.0853599  
H        H      0.189100000000     0.726600000000     0.637500000000     0.0853599  
H        H      0.267400000000     0.813200000000     0.532700000000     0.0853599  
H        H      0.010600000000     0.450200000000     0.412000000000     0.0853599  
H        H      0.162300000000     0.374500000000     0.429200000000     0.0853599  
H        H      0.127100000000     0.532200000000     0.219400000000     0.0853599  
H        H      0.285000000000     0.461200000000     0.235100000000     0.0853599  
H        H      0.346600000000     0.344300000000     0.403100000000     0.0853599  
H        H      0.426500000000     0.432000000000     0.376300000000     0.0853599  
H        H      0.349600000000     0.295300000000     0.211900000000     0.0853599  
H        H      0.435700000000     0.263500000000     0.276600000000     0.0853599  
H        H      0.198700000000     0.174900000000     0.266500000000     0.0853599  
H        H      0.222200000000     0.130900000000     0.163400000000     0.0853599  
H        H      0.325900000000     0.993800000000     0.118400000000     0.0853599  
H        H      0.320300000000     0.132700000000     0.392600000000     0.0853599  
H        H      0.401000000000     0.001900000000     0.416900000000     0.0853599  
H        H      0.403100000000     0.864300000000     0.145500000000     0.0853599  
H        H      0.896800000000     0.994300000000     0.627900000000     0.0853599  
H        H      0.099800000000     0.151100000000     0.701300000000     0.0853599  
H        H      0.448800000000     0.350700000000     0.046700000000     0.0853599  
H        H      0.337400000000     0.270100000000     0.869000000000     0.0853599  
H        H      0.810900000000     0.273400000000     0.362500000000     0.0853599  
H        H      0.732600000000     0.186800000000     0.467300000000     0.0853599  
H        H      0.989400000000     0.549800000000     0.588000000000     0.0853599  
H        H      0.837700000000     0.625500000000     0.570800000000     0.0853599  
H        H      0.872900000000     0.467800000000     0.780600000000     0.0853599  
H        H      0.715000000000     0.538800000000     0.764900000000     0.0853599  
H        H      0.653400000000     0.655700000000     0.596900000000     0.0853599  
H        H      0.573500000000     0.568000000000     0.623700000000     0.0853599  
H        H      0.650400000000     0.704700000000     0.788100000000     0.0853599  
H        H      0.564300000000     0.736500000000     0.723400000000     0.0853599  
H        H      0.801300000000     0.825100000000     0.733500000000     0.0853599  
H        H      0.777800000000     0.869100000000     0.836600000000     0.0853599  
H        H      0.674100000000     0.006200000000     0.881600000000     0.0853599  
H        H      0.679700000000     0.867300000000     0.607400000000     0.0853599  
H        H      0.599000000000     0.998100000000     0.583100000000     0.0853599  
H        H      0.596900000000     0.135700000000     0.854500000000     0.0853599  
C        C      0.093700000000     0.220800000000     0.518400000000     0.0353045  
C        C      0.013500000000     0.103800000000     0.449900000000     0.0353045  
C        C      0.030400000000     0.011800000000     0.386900000000     0.0353045  
C        C      0.916300000000     0.923300000000     0.345700000000     0.0353045  
C        C      0.837500000000     0.968900000000     0.388100000000     0.0353045  
C        C      0.708200000000     0.922000000000     0.382800000000     0.0353045  
C        C      0.559600000000     0.419900000000     0.835500000000     0.0353045  
C        C      0.611100000000     0.512700000000     0.935600000000     0.0353045  
C        C      0.594800000000     0.615000000000     0.981500000000     0.0353045  
C        C      0.657000000000     0.660100000000     0.081200000000     0.0353045  
C        C      0.706800000000     0.581200000000     0.089700000000     0.0353045  
C        C      0.782200000000     0.578600000000     0.171800000000     0.0353045  
C        C      0.284200000000     0.547000000000     0.639900000000     0.0353045  
C        C      0.304400000000     0.632000000000     0.602200000000     0.0353045  
C        C      0.246700000000     0.709000000000     0.604000000000     0.0353045  
C        C      0.290700000000     0.757700000000     0.545400000000     0.0353045  
C        C      0.374100000000     0.707500000000     0.511100000000     0.0353045  
C        C      0.446000000000     0.722900000000     0.445200000000     0.0353045  
C        C      0.067000000000     0.453600000000     0.376400000000     0.0353045  
C        C      0.158500000000     0.407900000000     0.387300000000     0.0353045  
C        C      0.245800000000     0.411200000000     0.336000000000     0.0353045  
C        C      0.135200000000     0.502400000000     0.263800000000     0.0353045  
C        C      0.230600000000     0.458600000000     0.272500000000     0.0353045  
C        C      0.351700000000     0.369200000000     0.352900000000     0.0353045  
C        C      0.356700000000     0.273900000000     0.264600000000     0.0353045  
C        C      0.260500000000     0.161900000000     0.232300000000     0.0353045  
C        C      0.309900000000     0.076100000000     0.250400000000     0.0353045  
C        C      0.338600000000     0.996700000000     0.179900000000     0.0353045  
C        C      0.336000000000     0.077900000000     0.340700000000     0.0353045  
C        C      0.385400000000     0.998900000000     0.355400000000     0.0353045  
C        C      0.386600000000     0.919300000000     0.196900000000     0.0353045  
C        C      0.906300000000     0.779200000000     0.481600000000     0.0353045  
C        C      0.986500000000     0.896200000000     0.550100000000     0.0353045  
C        C      0.969600000000     0.988200000000     0.613100000000     0.0353045  
C        C      0.083700000000     0.076700000000     0.654300000000     0.0353045  
C        C      0.162500000000     0.031100000000     0.611900000000     0.0353045  
C        C      0.291800000000     0.078000000000     0.617200000000     0.0353045  
C        C      0.440400000000     0.580100000000     0.164500000000     0.0353045  
C        C      0.388900000000     0.487300000000     0.064400000000     0.0353045  
C        C      0.405200000000     0.385000000000     0.018500000000     0.0353045  
C        C      0.343000000000     0.339900000000     0.918800000000     0.0353045  
C        C      0.293200000000     0.418800000000     0.910300000000     0.0353045  
C        C      0.217800000000     0.421400000000     0.828200000000     0.0353045  
C        C      0.715800000000     0.453000000000     0.360100000000     0.0353045  
C        C      0.695600000000     0.368000000000     0.397800000000     0.0353045  
C        C      0.753300000000     0.291000000000     0.396000000000     0.0353045  
C        C      0.709300000000     0.242300000000     0.454600000000     0.0353045  
C        C      0.625900000000     0.292500000000     0.488900000000     0.0353045  
C        C      0.554000000000     0.277100000000     0.554800000000     0.0353045  
C        C      0.933000000000     0.546400000000     0.623600000000     0.0353045  
C        C      0.841500000000     0.592100000000     0.612700000000     0.0353045  
C        C      0.754200000000     0.588800000000     0.664000000000     0.0353045  
C        C      0.864800000000     0.497600000000     0.736200000000     0.0353045  
C        C      0.769400000000     0.541400000000     0.727500000000     0.0353045  
C        C      0.648300000000     0.630800000000     0.647100000000     0.0353045  
C        C      0.643300000000     0.726100000000     0.735400000000     0.0353045  
C        C      0.739500000000     0.838100000000     0.767700000000     0.0353045  
C        C      0.690100000000     0.923900000000     0.749600000000     0.0353045  
C        C      0.661400000000     0.003300000000     0.820100000000     0.0353045  
C        C      0.664000000000     0.922100000000     0.659300000000     0.0353045  
C        C      0.614600000000     0.001100000000     0.644600000000     0.0353045  
C        C      0.613400000000     0.080700000000     0.803100000000     0.0353045  
N        N      0.054000000000     0.503700000000     0.316400000000    -0.198319   
N        N      0.410700000000     0.919900000000     0.284400000000    -0.198319   
N        N      0.946000000000     0.496300000000     0.683600000000    -0.198319   
N        N      0.589300000000     0.080100000000     0.715600000000    -0.198319   
O        O      0.206900000000     0.233900000000     0.535400000000    -0.253267   
O        O      0.045700000000     0.295900000000     0.553400000000    -0.253267   
O        O      0.893400000000     0.081900000000     0.452400000000    -0.253267   
O        O      0.653300000000     0.818300000000     0.317900000000    -0.253267   
O        O      0.657800000000     0.982000000000     0.435100000000    -0.253267   
O        O      0.593000000000     0.332400000000     0.816600000000    -0.253267   
O        O      0.486600000000     0.436800000000     0.779000000000    -0.253267   
O        O      0.682800000000     0.490000000000     0.000000000000    -0.253267   
O        O      0.779800000000     0.641800000000     0.256100000000    -0.253267   
O        O      0.850500000000     0.517400000000     0.158300000000    -0.253267   
O        O      0.198400000000     0.547300000000     0.680600000000    -0.253267   
O        O      0.351000000000     0.484100000000     0.630200000000    -0.253267   
O        O      0.385800000000     0.630700000000     0.546600000000    -0.253267   
O        O      0.530800000000     0.682300000000     0.433500000000    -0.253267   
O        O      0.409600000000     0.780300000000     0.404400000000    -0.253267   
O        O      0.793100000000     0.766100000000     0.464600000000    -0.253267   
O        O      0.954300000000     0.704100000000     0.446600000000    -0.253267   
O        O      0.106600000000     0.918100000000     0.547600000000    -0.253267   
O        O      0.346700000000     0.181700000000     0.682100000000    -0.253267   
O        O      0.342200000000     0.018000000000     0.564900000000    -0.253267   
O        O      0.407000000000     0.667600000000     0.183400000000    -0.253267   
O        O      0.513400000000     0.563200000000     0.221000000000    -0.253267   
O        O      0.317200000000     0.510000000000     0.000000000000    -0.253267   
O        O      0.220200000000     0.358200000000     0.743900000000    -0.253267   
O        O      0.149500000000     0.482600000000     0.841700000000    -0.253267   
O        O      0.801600000000     0.452700000000     0.319400000000    -0.253267   
O        O      0.649000000000     0.515900000000     0.369800000000    -0.253267   
O        O      0.614200000000     0.369300000000     0.453400000000    -0.253267   
O        O      0.469200000000     0.317700000000     0.566500000000    -0.253267   
O        O      0.590400000000     0.219700000000     0.595600000000    -0.253267   


