data_PENZUE_original

_audit_creation_method RASPA-1.0
_audit_creation_date 2022-1-29
_audit_author_name 'Felipe Lopes de Oliveira <felipe.lopes.oliveira@ibm.com>'

_cell_length_a    8.459
_cell_length_b    9.622
_cell_length_c    24.389
_cell_angle_alpha 90
_cell_angle_beta  90
_cell_angle_gamma 90
_cell_volume      1985.08

_symmetry_cell_setting          triclinic
_symmetry_space_group_name_Hall 'P 1'
_symmetry_space_group_name_H-M  'P 1'
_symmetry_Int_Tables_number     1

_symmetry_equiv_pos_as_xyz 'x,y,z'

loop_
_atom_site_label
_atom_site_type_symbol
_atom_site_fract_x
_atom_site_fract_y
_atom_site_fract_z
_atom_site_charge
Zn       Zn     0.773410000000     0.595520000000     0.535070000000     0.44906    
Zn       Zn     0.773410000000     0.904480000000     0.964930000000     0.44906    
Zn       Zn     0.726590000000     0.404480000000     0.035070000000     0.44906    
Zn       Zn     0.726590000000     0.095520000000     0.464930000000     0.44906    
Zn       Zn     0.226590000000     0.404480000000     0.464930000000     0.44906    
Zn       Zn     0.226590000000     0.095520000000     0.035070000000     0.44906    
Zn       Zn     0.273410000000     0.595520000000     0.964930000000     0.44906    
Zn       Zn     0.273410000000     0.904480000000     0.535070000000     0.44906    
P        P      0.865540000000     0.397950000000     0.437630000000     0.413284   
P        P      0.865540000000     0.102050000000     0.062370000000     0.413284   
P        P      0.634460000000     0.602050000000     0.937630000000     0.413284   
P        P      0.634460000000     0.897950000000     0.562370000000     0.413284   
P        P      0.134460000000     0.602050000000     0.562370000000     0.413284   
P        P      0.134460000000     0.897950000000     0.937630000000     0.413284   
P        P      0.365540000000     0.397950000000     0.062370000000     0.413284   
P        P      0.365540000000     0.102050000000     0.437630000000     0.413284   
H        H      0.779300000000     0.386700000000     0.393700000000     0.0544079  
H        H      0.417900000000     0.208800000000     0.602500000000     0.0544079  
H        H      0.587900000000     0.315500000000     0.541600000000     0.0544079  
H        H      0.622400000000     0.643900000000     0.637800000000     0.0544079  
H        H      0.453000000000     0.545000000000     0.700700000000     0.0544079  
H        H      0.229200000000     0.369800000000     0.713700000000     0.0544079  
H        H      0.250000000000     0.221300000000     0.684800000000     0.0544079  
H        H      0.474000000000     0.173200000000     0.737600000000     0.0544079  
H        H      0.779300000000     0.113300000000     0.106300000000     0.0544079  
H        H      0.417900000000     0.291200000000     0.897500000000     0.0544079  
H        H      0.587900000000     0.184500000000     0.958400000000     0.0544079  
H        H      0.622400000000     0.856100000000     0.862200000000     0.0544079  
H        H      0.453000000000     0.955000000000     0.799300000000     0.0544079  
H        H      0.229200000000     0.130200000000     0.786300000000     0.0544079  
H        H      0.250000000000     0.278700000000     0.815200000000     0.0544079  
H        H      0.474000000000     0.326800000000     0.762400000000     0.0544079  
H        H      0.720700000000     0.613300000000     0.893700000000     0.0544079  
H        H      0.082100000000     0.791200000000     0.102500000000     0.0544079  
H        H      0.912100000000     0.684500000000     0.041600000000     0.0544079  
H        H      0.877600000000     0.356100000000     0.137800000000     0.0544079  
H        H      0.047000000000     0.455000000000     0.200700000000     0.0544079  
H        H      0.270800000000     0.630200000000     0.213700000000     0.0544079  
H        H      0.250000000000     0.778700000000     0.184800000000     0.0544079  
H        H      0.026000000000     0.826800000000     0.237600000000     0.0544079  
H        H      0.720700000000     0.886700000000     0.606300000000     0.0544079  
H        H      0.082100000000     0.708800000000     0.397500000000     0.0544079  
H        H      0.912100000000     0.815500000000     0.458400000000     0.0544079  
H        H      0.877600000000     0.143900000000     0.362200000000     0.0544079  
H        H      0.047000000000     0.045000000000     0.299300000000     0.0544079  
H        H      0.270800000000     0.869800000000     0.286300000000     0.0544079  
H        H      0.250000000000     0.721300000000     0.315200000000     0.0544079  
H        H      0.026000000000     0.673200000000     0.262400000000     0.0544079  
H        H      0.220700000000     0.613300000000     0.606300000000     0.0544079  
H        H      0.582100000000     0.791200000000     0.397500000000     0.0544079  
H        H      0.412100000000     0.684500000000     0.458400000000     0.0544079  
H        H      0.377600000000     0.356100000000     0.362200000000     0.0544079  
H        H      0.547000000000     0.455000000000     0.299300000000     0.0544079  
H        H      0.770800000000     0.630200000000     0.286300000000     0.0544079  
H        H      0.750000000000     0.778700000000     0.315200000000     0.0544079  
H        H      0.526000000000     0.826800000000     0.262400000000     0.0544079  
H        H      0.220700000000     0.886700000000     0.893700000000     0.0544079  
H        H      0.582100000000     0.708800000000     0.102500000000     0.0544079  
H        H      0.412100000000     0.815500000000     0.041600000000     0.0544079  
H        H      0.377600000000     0.143900000000     0.137800000000     0.0544079  
H        H      0.547000000000     0.045000000000     0.200700000000     0.0544079  
H        H      0.770800000000     0.869800000000     0.213700000000     0.0544079  
H        H      0.750000000000     0.721300000000     0.184800000000     0.0544079  
H        H      0.526000000000     0.673200000000     0.237600000000     0.0544079  
H        H      0.279300000000     0.386700000000     0.106300000000     0.0544079  
H        H      0.917900000000     0.208800000000     0.897500000000     0.0544079  
H        H      0.087900000000     0.315500000000     0.958400000000     0.0544079  
H        H      0.122400000000     0.643900000000     0.862200000000     0.0544079  
H        H      0.953000000000     0.545000000000     0.799300000000     0.0544079  
H        H      0.729200000000     0.369800000000     0.786300000000     0.0544079  
H        H      0.750000000000     0.221300000000     0.815200000000     0.0544079  
H        H      0.974000000000     0.173200000000     0.762400000000     0.0544079  
H        H      0.279300000000     0.113300000000     0.393700000000     0.0544079  
H        H      0.917900000000     0.291200000000     0.602500000000     0.0544079  
H        H      0.087900000000     0.184500000000     0.541600000000     0.0544079  
H        H      0.122400000000     0.856100000000     0.637800000000     0.0544079  
H        H      0.953000000000     0.955000000000     0.700700000000     0.0544079  
H        H      0.729200000000     0.130200000000     0.713700000000     0.0544079  
H        H      0.750000000000     0.278700000000     0.684800000000     0.0544079  
H        H      0.974000000000     0.326800000000     0.737600000000     0.0544079  
C        C      0.458100000000     0.298700000000     0.610580000000    -0.0377526  
C        C      0.559900000000     0.362600000000     0.574450000000    -0.0377526  
C        C      0.580100000000     0.554300000000     0.630530000000    -0.0377526  
C        C      0.478800000000     0.495800000000     0.668110000000    -0.0377526  
C        C      0.413700000000     0.364900000000     0.658780000000    -0.0377526  
C        C      0.307800000000     0.300500000000     0.701140000000    -0.0377526  
C        C      0.458100000000     0.201300000000     0.889420000000    -0.0377526  
C        C      0.559900000000     0.137400000000     0.925550000000    -0.0377526  
C        C      0.580100000000     0.945700000000     0.869470000000    -0.0377526  
C        C      0.478800000000     0.004200000000     0.831890000000    -0.0377526  
C        C      0.413700000000     0.135100000000     0.841220000000    -0.0377526  
C        C      0.307800000000     0.199500000000     0.798860000000    -0.0377526  
C        C      0.041900000000     0.701300000000     0.110580000000    -0.0377526  
C        C      0.940100000000     0.637400000000     0.074450000000    -0.0377526  
C        C      0.919900000000     0.445700000000     0.130530000000    -0.0377526  
C        C      0.021200000000     0.504200000000     0.168110000000    -0.0377526  
C        C      0.086300000000     0.635100000000     0.158780000000    -0.0377526  
C        C      0.192200000000     0.699500000000     0.201140000000    -0.0377526  
C        C      0.041900000000     0.798700000000     0.389420000000    -0.0377526  
C        C      0.940100000000     0.862600000000     0.425550000000    -0.0377526  
C        C      0.919900000000     0.054300000000     0.369470000000    -0.0377526  
C        C      0.021200000000     0.995800000000     0.331890000000    -0.0377526  
C        C      0.086300000000     0.864900000000     0.341220000000    -0.0377526  
C        C      0.192200000000     0.800500000000     0.298860000000    -0.0377526  
C        C      0.541900000000     0.701300000000     0.389420000000    -0.0377526  
C        C      0.440100000000     0.637400000000     0.425550000000    -0.0377526  
C        C      0.419900000000     0.445700000000     0.369470000000    -0.0377526  
C        C      0.521200000000     0.504200000000     0.331890000000    -0.0377526  
C        C      0.586300000000     0.635100000000     0.341220000000    -0.0377526  
C        C      0.692200000000     0.699500000000     0.298860000000    -0.0377526  
C        C      0.541900000000     0.798700000000     0.110580000000    -0.0377526  
C        C      0.440100000000     0.862600000000     0.074450000000    -0.0377526  
C        C      0.419900000000     0.054300000000     0.130530000000    -0.0377526  
C        C      0.521200000000     0.995800000000     0.168110000000    -0.0377526  
C        C      0.586300000000     0.864900000000     0.158780000000    -0.0377526  
C        C      0.692200000000     0.800500000000     0.201140000000    -0.0377526  
C        C      0.958100000000     0.298700000000     0.889420000000    -0.0377526  
C        C      0.059900000000     0.362600000000     0.925550000000    -0.0377526  
C        C      0.080100000000     0.554300000000     0.869470000000    -0.0377526  
C        C      0.978800000000     0.495800000000     0.831890000000    -0.0377526  
C        C      0.913700000000     0.364900000000     0.841220000000    -0.0377526  
C        C      0.807800000000     0.300500000000     0.798860000000    -0.0377526  
C        C      0.958100000000     0.201300000000     0.610580000000    -0.0377526  
C        C      0.059900000000     0.137400000000     0.574450000000    -0.0377526  
C        C      0.080100000000     0.945700000000     0.630530000000    -0.0377526  
C        C      0.978800000000     0.004200000000     0.668110000000    -0.0377526  
C        C      0.913700000000     0.135100000000     0.658780000000    -0.0377526  
C        C      0.807800000000     0.199500000000     0.701140000000    -0.0377526  
C        C      0.404800000000     0.250000000000     0.750000000000    -0.0377526  
C        C      0.095200000000     0.750000000000     0.250000000000    -0.0377526  
C        C      0.595200000000     0.750000000000     0.250000000000    -0.0377526  
C        C      0.904800000000     0.250000000000     0.750000000000    -0.0377526  
N        N      0.621300000000     0.489200000000     0.583910000000    -0.185315   
N        N      0.621300000000     0.010800000000     0.916090000000    -0.185315   
N        N      0.878700000000     0.510800000000     0.083910000000    -0.185315   
N        N      0.878700000000     0.989200000000     0.416090000000    -0.185315   
N        N      0.378700000000     0.510800000000     0.416090000000    -0.185315   
N        N      0.378700000000     0.989200000000     0.083910000000    -0.185315   
N        N      0.121300000000     0.489200000000     0.916090000000    -0.185315   
N        N      0.121300000000     0.010800000000     0.583910000000    -0.185315   
O        O      0.823900000000     0.536740000000     0.462770000000    -0.288967   
O        O      0.820100000000     0.277450000000     0.474050000000    -0.288967   
O        O      0.037900000000     0.391370000000     0.418360000000    -0.288967   
O        O      0.823900000000     0.963260000000     0.037230000000    -0.288967   
O        O      0.820100000000     0.222550000000     0.025950000000    -0.288967   
O        O      0.037900000000     0.108630000000     0.081640000000    -0.288967   
O        O      0.676100000000     0.463260000000     0.962770000000    -0.288967   
O        O      0.679900000000     0.722550000000     0.974050000000    -0.288967   
O        O      0.462100000000     0.608630000000     0.918360000000    -0.288967   
O        O      0.676100000000     0.036740000000     0.537230000000    -0.288967   
O        O      0.679900000000     0.777450000000     0.525950000000    -0.288967   
O        O      0.462100000000     0.891370000000     0.581640000000    -0.288967   
O        O      0.176100000000     0.463260000000     0.537230000000    -0.288967   
O        O      0.179900000000     0.722550000000     0.525950000000    -0.288967   
O        O      0.962100000000     0.608630000000     0.581640000000    -0.288967   
O        O      0.176100000000     0.036740000000     0.962770000000    -0.288967   
O        O      0.179900000000     0.777450000000     0.974050000000    -0.288967   
O        O      0.962100000000     0.891370000000     0.918360000000    -0.288967   
O        O      0.323900000000     0.536740000000     0.037230000000    -0.288967   
O        O      0.320100000000     0.277450000000     0.025950000000    -0.288967   
O        O      0.537900000000     0.391370000000     0.081640000000    -0.288967   
O        O      0.323900000000     0.963260000000     0.462770000000    -0.288967   
O        O      0.320100000000     0.222550000000     0.474050000000    -0.288967   
O        O      0.537900000000     0.108630000000     0.418360000000    -0.288967   


