data_PEPXIS_original

_audit_creation_method RASPA-1.0
_audit_creation_date 2022-1-30
_audit_author_name 'Felipe Lopes de Oliveira <felipe.lopes.oliveira@ibm.com>'

_cell_length_a    7.5093
_cell_length_b    9.912
_cell_length_c    17.457
_cell_angle_alpha 90
_cell_angle_beta  90
_cell_angle_gamma 90
_cell_volume      1299.36

_symmetry_cell_setting          triclinic
_symmetry_space_group_name_Hall 'P 1'
_symmetry_space_group_name_H-M  'P 1'
_symmetry_Int_Tables_number     1

_symmetry_equiv_pos_as_xyz 'x,y,z'

loop_
_atom_site_label
_atom_site_type_symbol
_atom_site_fract_x
_atom_site_fract_y
_atom_site_fract_z
_atom_site_charge
Zn       Zn     0.472280000000     0.750000000000     0.734020000000     0.388276   
Zn       Zn     0.027720000000     0.250000000000     0.234020000000     0.388276   
Zn       Zn     0.527720000000     0.250000000000     0.265980000000     0.388276   
Zn       Zn     0.972280000000     0.750000000000     0.765980000000     0.388276   
Zn       Zn     0.612440000000     0.250000000000     0.922270000000     0.388276   
Zn       Zn     0.887560000000     0.750000000000     0.422270000000     0.388276   
Zn       Zn     0.387560000000     0.750000000000     0.077730000000     0.388276   
Zn       Zn     0.112440000000     0.250000000000     0.577730000000     0.388276   
H        H      0.937000000000     0.031300000000     0.877500000000     0.0198117  
H        H      0.441800000000     0.044200000000     0.815300000000     0.0198117  
H        H      0.563000000000     0.968700000000     0.377500000000     0.0198117  
H        H      0.058200000000     0.955800000000     0.315300000000     0.0198117  
H        H      0.063000000000     0.531300000000     0.122500000000     0.0198117  
H        H      0.558200000000     0.544200000000     0.184700000000     0.0198117  
H        H      0.437000000000     0.468700000000     0.622500000000     0.0198117  
H        H      0.941800000000     0.455800000000     0.684700000000     0.0198117  
H        H      0.063000000000     0.968700000000     0.122500000000     0.0198117  
H        H      0.558200000000     0.955800000000     0.184700000000     0.0198117  
H        H      0.437000000000     0.031300000000     0.622500000000     0.0198117  
H        H      0.941800000000     0.044200000000     0.684700000000     0.0198117  
H        H      0.937000000000     0.468700000000     0.877500000000     0.0198117  
H        H      0.441800000000     0.455800000000     0.815300000000     0.0198117  
H        H      0.563000000000     0.531300000000     0.377500000000     0.0198117  
H        H      0.058200000000     0.544200000000     0.315300000000     0.0198117  
H        H      0.528600000000     0.750000000000     0.917700000000     0.0198117  
H        H      0.022800000000     0.750000000000     0.961800000000     0.0198117  
H        H      0.971400000000     0.250000000000     0.417700000000     0.0198117  
H        H      0.477200000000     0.250000000000     0.461800000000     0.0198117  
H        H      0.471400000000     0.250000000000     0.082300000000     0.0198117  
H        H      0.977200000000     0.250000000000     0.038200000000     0.0198117  
H        H      0.028600000000     0.750000000000     0.582300000000     0.0198117  
H        H      0.522800000000     0.750000000000     0.538200000000     0.0198117  
C        C      0.828600000000     0.010000000000     0.854800000000     0.113904   
C        C      0.559700000000     0.017200000000     0.820800000000     0.113904   
C        C      0.671400000000     0.990000000000     0.354800000000     0.113904   
C        C      0.940300000000     0.982800000000     0.320800000000     0.113904   
C        C      0.171400000000     0.510000000000     0.145200000000     0.113904   
C        C      0.440300000000     0.517200000000     0.179200000000     0.113904   
C        C      0.328600000000     0.490000000000     0.645200000000     0.113904   
C        C      0.059700000000     0.482800000000     0.679200000000     0.113904   
C        C      0.171400000000     0.990000000000     0.145200000000     0.113904   
C        C      0.440300000000     0.982800000000     0.179200000000     0.113904   
C        C      0.328600000000     0.010000000000     0.645200000000     0.113904   
C        C      0.059700000000     0.017200000000     0.679200000000     0.113904   
C        C      0.828600000000     0.490000000000     0.854800000000     0.113904   
C        C      0.559700000000     0.482800000000     0.820800000000     0.113904   
C        C      0.671400000000     0.510000000000     0.354800000000     0.113904   
C        C      0.940300000000     0.517200000000     0.320800000000     0.113904   
C        C      0.405400000000     0.750000000000     0.912300000000     0.113904   
C        C      0.131300000000     0.750000000000     0.936100000000     0.113904   
C        C      0.094600000000     0.250000000000     0.412300000000     0.113904   
C        C      0.368700000000     0.250000000000     0.436100000000     0.113904   
C        C      0.594600000000     0.250000000000     0.087700000000     0.113904   
C        C      0.868700000000     0.250000000000     0.063900000000     0.113904   
C        C      0.905400000000     0.750000000000     0.587700000000     0.113904   
C        C      0.631300000000     0.750000000000     0.563900000000     0.113904   
N        N      0.626400000000     0.909000000000     0.788200000000    -0.135143   
N        N      0.679500000000     0.084600000000     0.862800000000    -0.135143   
N        N      0.802600000000     0.903100000000     0.810800000000    -0.135143   
N        N      0.873600000000     0.091000000000     0.288200000000    -0.135143   
N        N      0.820500000000     0.915400000000     0.362800000000    -0.135143   
N        N      0.697400000000     0.096900000000     0.310800000000    -0.135143   
N        N      0.373600000000     0.409000000000     0.211800000000    -0.135143   
N        N      0.320500000000     0.584600000000     0.137200000000    -0.135143   
N        N      0.197400000000     0.403100000000     0.189200000000    -0.135143   
N        N      0.126400000000     0.591000000000     0.711800000000    -0.135143   
N        N      0.179500000000     0.415400000000     0.637200000000    -0.135143   
N        N      0.302600000000     0.596900000000     0.689200000000    -0.135143   
N        N      0.373600000000     0.091000000000     0.211800000000    -0.135143   
N        N      0.320500000000     0.915400000000     0.137200000000    -0.135143   
N        N      0.197400000000     0.096900000000     0.189200000000    -0.135143   
N        N      0.126400000000     0.909000000000     0.711800000000    -0.135143   
N        N      0.179500000000     0.084600000000     0.637200000000    -0.135143   
N        N      0.302600000000     0.903100000000     0.689200000000    -0.135143   
N        N      0.626400000000     0.591000000000     0.788200000000    -0.135143   
N        N      0.679500000000     0.415400000000     0.862800000000    -0.135143   
N        N      0.802600000000     0.596900000000     0.810800000000    -0.135143   
N        N      0.873600000000     0.409000000000     0.288200000000    -0.135143   
N        N      0.820500000000     0.584600000000     0.362800000000    -0.135143   
N        N      0.697400000000     0.403100000000     0.310800000000    -0.135143   
N        N      0.323400000000     0.750000000000     0.845400000000    -0.135143   
N        N      0.146500000000     0.750000000000     0.861900000000    -0.135143   
N        N      0.291200000000     0.750000000000     0.971800000000    -0.135143   
N        N      0.176600000000     0.250000000000     0.345400000000    -0.135143   
N        N      0.353500000000     0.250000000000     0.361900000000    -0.135143   
N        N      0.208800000000     0.250000000000     0.471800000000    -0.135143   
N        N      0.676600000000     0.250000000000     0.154600000000    -0.135143   
N        N      0.853500000000     0.250000000000     0.138100000000    -0.135143   
N        N      0.708800000000     0.250000000000     0.028200000000    -0.135143   
N        N      0.823400000000     0.750000000000     0.654600000000    -0.135143   
N        N      0.646500000000     0.750000000000     0.638100000000    -0.135143   
N        N      0.791200000000     0.750000000000     0.528200000000    -0.135143   
Cl       Cl     0.311100000000     0.250000000000     0.928790000000    -0.362561   
Cl       Cl     0.188900000000     0.750000000000     0.428790000000    -0.362561   
Cl       Cl     0.688900000000     0.750000000000     0.071210000000    -0.362561   
Cl       Cl     0.811100000000     0.250000000000     0.571210000000    -0.362561   


