data_PEVPUD_original

_audit_creation_method RASPA-1.0
_audit_creation_date 2022-1-31
_audit_author_name 'Felipe Lopes de Oliveira <felipe.lopes.oliveira@ibm.com>'

_cell_length_a    18.2016
_cell_length_b    18.2016
_cell_length_c    18.2016
_cell_angle_alpha 60
_cell_angle_beta  60
_cell_angle_gamma 60
_cell_volume      4263.97

_symmetry_cell_setting          triclinic
_symmetry_space_group_name_Hall 'P 1'
_symmetry_space_group_name_H-M  'P 1'
_symmetry_Int_Tables_number     1

_symmetry_equiv_pos_as_xyz 'x,y,z'

loop_
_atom_site_label
_atom_site_type_symbol
_atom_site_fract_x
_atom_site_fract_y
_atom_site_fract_z
_atom_site_charge
Zn       Zn     0.543380000000     0.369860000000     0.543380000000     0.486523   
Zn       Zn     0.369860000000     0.543380000000     0.543380000000     0.486523   
Zn       Zn     0.543380000000     0.543380000000     0.543380000000     0.486523   
Zn       Zn     0.543380000000     0.543380000000     0.369860000000     0.486523   
Zn       Zn     0.130290000000     0.956570000000     0.956570000000     0.486523   
Zn       Zn     0.956570000000     0.130290000000     0.956570000000     0.486523   
Zn       Zn     0.956570000000     0.956570000000     0.130290000000     0.486523   
Zn       Zn     0.956570000000     0.956570000000     0.956570000000     0.486523   
H        H      0.314800000000     0.096800000000     0.794200000000     0.167662   
H        H      0.096800000000     0.314800000000     0.794200000000     0.167662   
H        H      0.794200000000     0.794200000000     0.314800000000     0.167662   
H        H      0.794200000000     0.794200000000     0.096800000000     0.167662   
H        H      0.314800000000     0.794200000000     0.794200000000     0.167662   
H        H      0.096800000000     0.794200000000     0.794200000000     0.167662   
H        H      0.794200000000     0.314800000000     0.096800000000     0.167662   
H        H      0.794200000000     0.096800000000     0.314800000000     0.167662   
H        H      0.314800000000     0.794200000000     0.096800000000     0.167662   
H        H      0.096800000000     0.794200000000     0.314800000000     0.167662   
H        H      0.794200000000     0.096800000000     0.794200000000     0.167662   
H        H      0.794200000000     0.314800000000     0.794200000000     0.167662   
C        C      0.330500000000     0.212500000000     0.728500000000     0.0530577  
C        C      0.288100000000     0.158900000000     0.776500000000     0.0530577  
C        C      0.212500000000     0.330500000000     0.728500000000     0.0530577  
C        C      0.158900000000     0.288100000000     0.776500000000     0.0530577  
C        C      0.728500000000     0.728500000000     0.330500000000     0.0530577  
C        C      0.776500000000     0.776500000000     0.288100000000     0.0530577  
C        C      0.728500000000     0.728500000000     0.212500000000     0.0530577  
C        C      0.776500000000     0.776500000000     0.158900000000     0.0530577  
C        C      0.330500000000     0.728500000000     0.728500000000     0.0530577  
C        C      0.288100000000     0.776500000000     0.776500000000     0.0530577  
C        C      0.212500000000     0.728500000000     0.728500000000     0.0530577  
C        C      0.158900000000     0.776500000000     0.776500000000     0.0530577  
C        C      0.728500000000     0.330500000000     0.212500000000     0.0530577  
C        C      0.776500000000     0.288100000000     0.158900000000     0.0530577  
C        C      0.728500000000     0.212500000000     0.330500000000     0.0530577  
C        C      0.776500000000     0.158900000000     0.288100000000     0.0530577  
C        C      0.330500000000     0.728500000000     0.212500000000     0.0530577  
C        C      0.288100000000     0.776500000000     0.158900000000     0.0530577  
C        C      0.212500000000     0.728500000000     0.330500000000     0.0530577  
C        C      0.158900000000     0.776500000000     0.288100000000     0.0530577  
C        C      0.728500000000     0.212500000000     0.728500000000     0.0530577  
C        C      0.776500000000     0.158900000000     0.776500000000     0.0530577  
C        C      0.728500000000     0.330500000000     0.728500000000     0.0530577  
C        C      0.776500000000     0.288100000000     0.776500000000     0.0530577  
C        C      0.304900000000     0.304900000000     0.695100000000     0.0530577  
C        C      0.200700000000     0.200700000000     0.799300000000     0.0530577  
C        C      0.139300000000     0.139300000000     0.860700000000     0.0530577  
C        C      0.361700000000     0.361700000000     0.638300000000     0.0530577  
C        C      0.695100000000     0.695100000000     0.304900000000     0.0530577  
C        C      0.799300000000     0.799300000000     0.200700000000     0.0530577  
C        C      0.860700000000     0.860700000000     0.139300000000     0.0530577  
C        C      0.638300000000     0.638300000000     0.361700000000     0.0530577  
C        C      0.304900000000     0.695100000000     0.695100000000     0.0530577  
C        C      0.200700000000     0.799300000000     0.799300000000     0.0530577  
C        C      0.139300000000     0.860700000000     0.860700000000     0.0530577  
C        C      0.361700000000     0.638300000000     0.638300000000     0.0530577  
C        C      0.695100000000     0.304900000000     0.304900000000     0.0530577  
C        C      0.799300000000     0.200700000000     0.200700000000     0.0530577  
C        C      0.860700000000     0.139300000000     0.139300000000     0.0530577  
C        C      0.638300000000     0.361700000000     0.361700000000     0.0530577  
C        C      0.304900000000     0.695100000000     0.304900000000     0.0530577  
C        C      0.200700000000     0.799300000000     0.200700000000     0.0530577  
C        C      0.139300000000     0.860700000000     0.139300000000     0.0530577  
C        C      0.361700000000     0.638300000000     0.361700000000     0.0530577  
C        C      0.695100000000     0.304900000000     0.695100000000     0.0530577  
C        C      0.799300000000     0.200700000000     0.799300000000     0.0530577  
C        C      0.860700000000     0.139300000000     0.860700000000     0.0530577  
C        C      0.638300000000     0.361700000000     0.638300000000     0.0530577  
O        O      0.178500000000     0.051700000000     0.884900000000    -0.325035   
O        O      0.441500000000     0.324700000000     0.616900000000    -0.325035   
O        O      0.051700000000     0.178500000000     0.884900000000    -0.325035   
O        O      0.324700000000     0.441500000000     0.616900000000    -0.325035   
O        O      0.884900000000     0.884900000000     0.178500000000    -0.325035   
O        O      0.616900000000     0.616900000000     0.441500000000    -0.325035   
O        O      0.884900000000     0.884900000000     0.051700000000    -0.325035   
O        O      0.616900000000     0.616900000000     0.324700000000    -0.325035   
O        O      0.178500000000     0.884900000000     0.884900000000    -0.325035   
O        O      0.441500000000     0.616900000000     0.616900000000    -0.325035   
O        O      0.051700000000     0.884900000000     0.884900000000    -0.325035   
O        O      0.324700000000     0.616900000000     0.616900000000    -0.325035   
O        O      0.884900000000     0.178500000000     0.051700000000    -0.325035   
O        O      0.616900000000     0.441500000000     0.324700000000    -0.325035   
O        O      0.884900000000     0.051700000000     0.178500000000    -0.325035   
O        O      0.616900000000     0.324700000000     0.441500000000    -0.325035   
O        O      0.178500000000     0.884900000000     0.051700000000    -0.325035   
O        O      0.441500000000     0.616900000000     0.324700000000    -0.325035   
O        O      0.051700000000     0.884900000000     0.178500000000    -0.325035   
O        O      0.324700000000     0.616900000000     0.441500000000    -0.325035   
O        O      0.884900000000     0.051700000000     0.884900000000    -0.325035   
O        O      0.616900000000     0.324700000000     0.616900000000    -0.325035   
O        O      0.884900000000     0.178500000000     0.884900000000    -0.325035   
O        O      0.616900000000     0.441500000000     0.616900000000    -0.325035   
O        O      0.000000000000     0.000000000000     0.000000000000    -0.325035   
O        O      0.500000000000     0.500000000000     0.500000000000    -0.325035   


