data_PEVQEO_original

_audit_creation_method RASPA-1.0
_audit_creation_date 2022-1-29
_audit_author_name 'Felipe Lopes de Oliveira <felipe.lopes.oliveira@ibm.com>'

_cell_length_a    18.0897
_cell_length_b    18.0897
_cell_length_c    18.0897
_cell_angle_alpha 60
_cell_angle_beta  60
_cell_angle_gamma 60
_cell_volume      4185.81

_symmetry_cell_setting          triclinic
_symmetry_space_group_name_Hall 'P 1'
_symmetry_space_group_name_H-M  'P 1'
_symmetry_Int_Tables_number     1

_symmetry_equiv_pos_as_xyz 'x,y,z'

loop_
_atom_site_label
_atom_site_type_symbol
_atom_site_fract_x
_atom_site_fract_y
_atom_site_fract_z
_atom_site_charge
Zn       Zn     0.381100000000     0.206300000000     0.206300000000     0.510247   
Zn       Zn     0.206300000000     0.381100000000     0.206300000000     0.510247   
Zn       Zn     0.206300000000     0.206300000000     0.381100000000     0.510247   
Zn       Zn     0.206300000000     0.206300000000     0.206300000000     0.510247   
Zn       Zn     0.793700000000     0.618900000000     0.793700000000     0.510247   
Zn       Zn     0.618900000000     0.793700000000     0.793700000000     0.510247   
Zn       Zn     0.793700000000     0.793700000000     0.618900000000     0.510247   
Zn       Zn     0.793700000000     0.793700000000     0.793700000000     0.510247   
H        H      0.352000000000     0.042400000000     0.563200000000     0.0584238  
H        H      0.042400000000     0.352000000000     0.042400000000     0.0584238  
H        H      0.563200000000     0.042400000000     0.352000000000     0.0584238  
H        H      0.042400000000     0.563200000000     0.042400000000     0.0584238  
H        H      0.352000000000     0.563200000000     0.042400000000     0.0584238  
H        H      0.042400000000     0.042400000000     0.563200000000     0.0584238  
H        H      0.563200000000     0.352000000000     0.042400000000     0.0584238  
H        H      0.042400000000     0.042400000000     0.352000000000     0.0584238  
H        H      0.352000000000     0.042400000000     0.042400000000     0.0584238  
H        H      0.042400000000     0.563200000000     0.352000000000     0.0584238  
H        H      0.563200000000     0.042400000000     0.042400000000     0.0584238  
H        H      0.042400000000     0.352000000000     0.563200000000     0.0584238  
H        H      0.957600000000     0.648000000000     0.436800000000     0.0584238  
H        H      0.648000000000     0.957600000000     0.957600000000     0.0584238  
H        H      0.957600000000     0.436800000000     0.648000000000     0.0584238  
H        H      0.436800000000     0.957600000000     0.957600000000     0.0584238  
H        H      0.436800000000     0.648000000000     0.957600000000     0.0584238  
H        H      0.957600000000     0.957600000000     0.436800000000     0.0584238  
H        H      0.648000000000     0.436800000000     0.957600000000     0.0584238  
H        H      0.957600000000     0.957600000000     0.648000000000     0.0584238  
H        H      0.957600000000     0.648000000000     0.957600000000     0.0584238  
H        H      0.436800000000     0.957600000000     0.648000000000     0.0584238  
H        H      0.957600000000     0.436800000000     0.957600000000     0.0584238  
H        H      0.648000000000     0.957600000000     0.436800000000     0.0584238  
C        C      0.414300000000     0.025900000000     0.533900000000     0.0654562  
C        C      0.025900000000     0.414300000000     0.025900000000     0.0654562  
C        C      0.533900000000     0.025900000000     0.414300000000     0.0654562  
C        C      0.025900000000     0.533900000000     0.025900000000     0.0654562  
C        C      0.414300000000     0.533900000000     0.025900000000     0.0654562  
C        C      0.025900000000     0.025900000000     0.533900000000     0.0654562  
C        C      0.533900000000     0.414300000000     0.025900000000     0.0654562  
C        C      0.025900000000     0.025900000000     0.414300000000     0.0654562  
C        C      0.414300000000     0.025900000000     0.025900000000     0.0654562  
C        C      0.025900000000     0.533900000000     0.414300000000     0.0654562  
C        C      0.533900000000     0.025900000000     0.025900000000     0.0654562  
C        C      0.025900000000     0.414300000000     0.533900000000     0.0654562  
C        C      0.974100000000     0.585700000000     0.466100000000     0.0654562  
C        C      0.585700000000     0.974100000000     0.974100000000     0.0654562  
C        C      0.974100000000     0.466100000000     0.585700000000     0.0654562  
C        C      0.466100000000     0.974100000000     0.974100000000     0.0654562  
C        C      0.466100000000     0.585700000000     0.974100000000     0.0654562  
C        C      0.974100000000     0.974100000000     0.466100000000     0.0654562  
C        C      0.585700000000     0.466100000000     0.974100000000     0.0654562  
C        C      0.974100000000     0.974100000000     0.585700000000     0.0654562  
C        C      0.974100000000     0.585700000000     0.974100000000     0.0654562  
C        C      0.466100000000     0.974100000000     0.585700000000     0.0654562  
C        C      0.974100000000     0.466100000000     0.974100000000     0.0654562  
C        C      0.585700000000     0.974100000000     0.466100000000     0.0654562  
C        C      0.385800000000     0.114200000000     0.385800000000     0.0654562  
C        C      0.443400000000     0.056600000000     0.443400000000     0.0654562  
C        C      0.114200000000     0.385800000000     0.114200000000     0.0654562  
C        C      0.056600000000     0.443400000000     0.056600000000     0.0654562  
C        C      0.385800000000     0.385800000000     0.114200000000     0.0654562  
C        C      0.443400000000     0.443400000000     0.056600000000     0.0654562  
C        C      0.114200000000     0.114200000000     0.385800000000     0.0654562  
C        C      0.056600000000     0.056600000000     0.443400000000     0.0654562  
C        C      0.385800000000     0.114200000000     0.114200000000     0.0654562  
C        C      0.443400000000     0.056600000000     0.056600000000     0.0654562  
C        C      0.114200000000     0.385800000000     0.385800000000     0.0654562  
C        C      0.056600000000     0.443400000000     0.443400000000     0.0654562  
C        C      0.885800000000     0.614200000000     0.614200000000     0.0654562  
C        C      0.943400000000     0.556600000000     0.556600000000     0.0654562  
C        C      0.614200000000     0.885800000000     0.885800000000     0.0654562  
C        C      0.556600000000     0.943400000000     0.943400000000     0.0654562  
C        C      0.614200000000     0.614200000000     0.885800000000     0.0654562  
C        C      0.556600000000     0.556600000000     0.943400000000     0.0654562  
C        C      0.885800000000     0.885800000000     0.614200000000     0.0654562  
C        C      0.943400000000     0.943400000000     0.556600000000     0.0654562  
C        C      0.885800000000     0.614200000000     0.885800000000     0.0654562  
C        C      0.943400000000     0.556600000000     0.943400000000     0.0654562  
C        C      0.614200000000     0.885800000000     0.614200000000     0.0654562  
C        C      0.556600000000     0.943400000000     0.556600000000     0.0654562  
O        O      0.250000000000     0.250000000000     0.250000000000    -0.331771   
O        O      0.750000000000     0.750000000000     0.750000000000    -0.331771   
O        O      0.426100000000     0.135700000000     0.302500000000    -0.331771   
O        O      0.135700000000     0.426100000000     0.135700000000    -0.331771   
O        O      0.302500000000     0.135700000000     0.426100000000    -0.331771   
O        O      0.135700000000     0.302500000000     0.135700000000    -0.331771   
O        O      0.426100000000     0.302500000000     0.135700000000    -0.331771   
O        O      0.135700000000     0.135700000000     0.302500000000    -0.331771   
O        O      0.302500000000     0.426100000000     0.135700000000    -0.331771   
O        O      0.135700000000     0.135700000000     0.426100000000    -0.331771   
O        O      0.426100000000     0.135700000000     0.135700000000    -0.331771   
O        O      0.135700000000     0.302500000000     0.426100000000    -0.331771   
O        O      0.302500000000     0.135700000000     0.135700000000    -0.331771   
O        O      0.135700000000     0.426100000000     0.302500000000    -0.331771   
O        O      0.864300000000     0.573900000000     0.697500000000    -0.331771   
O        O      0.573900000000     0.864300000000     0.864300000000    -0.331771   
O        O      0.864300000000     0.697500000000     0.573900000000    -0.331771   
O        O      0.697500000000     0.864300000000     0.864300000000    -0.331771   
O        O      0.697500000000     0.573900000000     0.864300000000    -0.331771   
O        O      0.864300000000     0.864300000000     0.697500000000    -0.331771   
O        O      0.573900000000     0.697500000000     0.864300000000    -0.331771   
O        O      0.864300000000     0.864300000000     0.573900000000    -0.331771   
O        O      0.864300000000     0.573900000000     0.864300000000    -0.331771   
O        O      0.697500000000     0.864300000000     0.573900000000    -0.331771   
O        O      0.864300000000     0.697500000000     0.864300000000    -0.331771   
O        O      0.573900000000     0.864300000000     0.697500000000    -0.331771   


