data_PEVQOY_original

_audit_creation_method RASPA-1.0
_audit_creation_date 2022-1-29
_audit_author_name 'Felipe Lopes de Oliveira <felipe.lopes.oliveira@ibm.com>'

_cell_length_a    18.0616
_cell_length_b    18.0616
_cell_length_c    18.0616
_cell_angle_alpha 60
_cell_angle_beta  60
_cell_angle_gamma 60
_cell_volume      4166.35

_symmetry_cell_setting          triclinic
_symmetry_space_group_name_Hall 'P 1'
_symmetry_space_group_name_H-M  'P 1'
_symmetry_Int_Tables_number     1

_symmetry_equiv_pos_as_xyz 'x,y,z'

loop_
_atom_site_label
_atom_site_type_symbol
_atom_site_fract_x
_atom_site_fract_y
_atom_site_fract_z
_atom_site_charge
Zn       Zn     0.793680000000     0.618960000000     0.793680000000     0.488319   
Zn       Zn     0.793680000000     0.793680000000     0.618960000000     0.488319   
Zn       Zn     0.793680000000     0.793680000000     0.793680000000     0.488319   
Zn       Zn     0.618960000000     0.793680000000     0.793680000000     0.488319   
Zn       Zn     0.206320000000     0.381040000000     0.206320000000     0.488319   
Zn       Zn     0.206320000000     0.206320000000     0.381040000000     0.488319   
Zn       Zn     0.381040000000     0.206320000000     0.206320000000     0.488319   
Zn       Zn     0.206320000000     0.206320000000     0.206320000000     0.488319   
H        H      0.960000000000     0.654220000000     0.960000000000     0.048806   
H        H      0.425780000000     0.960000000000     0.654220000000     0.048806   
H        H      0.960000000000     0.425780000000     0.960000000000     0.048806   
H        H      0.654220000000     0.960000000000     0.425780000000     0.048806   
H        H      0.654220000000     0.960000000000     0.960000000000     0.048806   
H        H      0.960000000000     0.654220000000     0.425780000000     0.048806   
H        H      0.425780000000     0.960000000000     0.960000000000     0.048806   
H        H      0.960000000000     0.425780000000     0.654220000000     0.048806   
H        H      0.960000000000     0.960000000000     0.654220000000     0.048806   
H        H      0.654220000000     0.425780000000     0.960000000000     0.048806   
H        H      0.960000000000     0.960000000000     0.425780000000     0.048806   
H        H      0.425780000000     0.654220000000     0.960000000000     0.048806   
H        H      0.574220000000     0.345780000000     0.040000000000     0.048806   
H        H      0.040000000000     0.040000000000     0.345780000000     0.048806   
H        H      0.345780000000     0.574220000000     0.040000000000     0.048806   
H        H      0.040000000000     0.040000000000     0.574220000000     0.048806   
H        H      0.574220000000     0.040000000000     0.040000000000     0.048806   
H        H      0.040000000000     0.345780000000     0.574220000000     0.048806   
H        H      0.345780000000     0.040000000000     0.040000000000     0.048806   
H        H      0.040000000000     0.574220000000     0.345780000000     0.048806   
H        H      0.574220000000     0.040000000000     0.345780000000     0.048806   
H        H      0.040000000000     0.574220000000     0.040000000000     0.048806   
H        H      0.345780000000     0.040000000000     0.574220000000     0.048806   
H        H      0.040000000000     0.345780000000     0.040000000000     0.048806   
C        C      0.976200000000     0.579200000000     0.976200000000     0.0594921  
C        C      0.468400000000     0.976200000000     0.579200000000     0.0594921  
C        C      0.976200000000     0.468400000000     0.976200000000     0.0594921  
C        C      0.579200000000     0.976200000000     0.468400000000     0.0594921  
C        C      0.579200000000     0.976200000000     0.976200000000     0.0594921  
C        C      0.976200000000     0.579200000000     0.468400000000     0.0594921  
C        C      0.468400000000     0.976200000000     0.976200000000     0.0594921  
C        C      0.976200000000     0.468400000000     0.579200000000     0.0594921  
C        C      0.976200000000     0.976200000000     0.579200000000     0.0594921  
C        C      0.579200000000     0.468400000000     0.976200000000     0.0594921  
C        C      0.976200000000     0.976200000000     0.468400000000     0.0594921  
C        C      0.468400000000     0.579200000000     0.976200000000     0.0594921  
C        C      0.531600000000     0.420800000000     0.023800000000     0.0594921  
C        C      0.023800000000     0.023800000000     0.420800000000     0.0594921  
C        C      0.420800000000     0.531600000000     0.023800000000     0.0594921  
C        C      0.023800000000     0.023800000000     0.531600000000     0.0594921  
C        C      0.531600000000     0.023800000000     0.023800000000     0.0594921  
C        C      0.023800000000     0.420800000000     0.531600000000     0.0594921  
C        C      0.420800000000     0.023800000000     0.023800000000     0.0594921  
C        C      0.023800000000     0.531600000000     0.420800000000     0.0594921  
C        C      0.531600000000     0.023800000000     0.420800000000     0.0594921  
C        C      0.023800000000     0.531600000000     0.023800000000     0.0594921  
C        C      0.420800000000     0.023800000000     0.531600000000     0.0594921  
C        C      0.023800000000     0.420800000000     0.023800000000     0.0594921  
C        C      0.887400000000     0.612600000000     0.887400000000     0.0594921  
C        C      0.944800000000     0.555200000000     0.944800000000     0.0594921  
C        C      0.612600000000     0.887400000000     0.612600000000     0.0594921  
C        C      0.555200000000     0.944800000000     0.555200000000     0.0594921  
C        C      0.612600000000     0.887400000000     0.887400000000     0.0594921  
C        C      0.555200000000     0.944800000000     0.944800000000     0.0594921  
C        C      0.887400000000     0.612600000000     0.612600000000     0.0594921  
C        C      0.944800000000     0.555200000000     0.555200000000     0.0594921  
C        C      0.887400000000     0.887400000000     0.612600000000     0.0594921  
C        C      0.944800000000     0.944800000000     0.555200000000     0.0594921  
C        C      0.612600000000     0.612600000000     0.887400000000     0.0594921  
C        C      0.555200000000     0.555200000000     0.944800000000     0.0594921  
C        C      0.387400000000     0.387400000000     0.112600000000     0.0594921  
C        C      0.444800000000     0.444800000000     0.055200000000     0.0594921  
C        C      0.112600000000     0.112600000000     0.387400000000     0.0594921  
C        C      0.055200000000     0.055200000000     0.444800000000     0.0594921  
C        C      0.387400000000     0.112600000000     0.112600000000     0.0594921  
C        C      0.444800000000     0.055200000000     0.055200000000     0.0594921  
C        C      0.112600000000     0.387400000000     0.387400000000     0.0594921  
C        C      0.055200000000     0.444800000000     0.444800000000     0.0594921  
C        C      0.387400000000     0.112600000000     0.387400000000     0.0594921  
C        C      0.444800000000     0.055200000000     0.444800000000     0.0594921  
C        C      0.112600000000     0.387400000000     0.112600000000     0.0594921  
C        C      0.055200000000     0.444800000000     0.055200000000     0.0594921  
O        O      0.865700000000     0.569500000000     0.865700000000    -0.305135   
O        O      0.699100000000     0.865700000000     0.569500000000    -0.305135   
O        O      0.865700000000     0.699100000000     0.865700000000    -0.305135   
O        O      0.569500000000     0.865700000000     0.699100000000    -0.305135   
O        O      0.569500000000     0.865700000000     0.865700000000    -0.305135   
O        O      0.865700000000     0.569500000000     0.699100000000    -0.305135   
O        O      0.699100000000     0.865700000000     0.865700000000    -0.305135   
O        O      0.865700000000     0.699100000000     0.569500000000    -0.305135   
O        O      0.865700000000     0.865700000000     0.569500000000    -0.305135   
O        O      0.569500000000     0.699100000000     0.865700000000    -0.305135   
O        O      0.865700000000     0.865700000000     0.699100000000    -0.305135   
O        O      0.699100000000     0.569500000000     0.865700000000    -0.305135   
O        O      0.300900000000     0.430500000000     0.134300000000    -0.305135   
O        O      0.134300000000     0.134300000000     0.430500000000    -0.305135   
O        O      0.430500000000     0.300900000000     0.134300000000    -0.305135   
O        O      0.134300000000     0.134300000000     0.300900000000    -0.305135   
O        O      0.300900000000     0.134300000000     0.134300000000    -0.305135   
O        O      0.134300000000     0.430500000000     0.300900000000    -0.305135   
O        O      0.430500000000     0.134300000000     0.134300000000    -0.305135   
O        O      0.134300000000     0.300900000000     0.430500000000    -0.305135   
O        O      0.300900000000     0.134300000000     0.430500000000    -0.305135   
O        O      0.134300000000     0.300900000000     0.134300000000    -0.305135   
O        O      0.430500000000     0.134300000000     0.300900000000    -0.305135   
O        O      0.134300000000     0.430500000000     0.134300000000    -0.305135   
O        O      0.750000000000     0.750000000000     0.750000000000    -0.305135   
O        O      0.250000000000     0.250000000000     0.250000000000    -0.305135   


