data_PEYPIU_original

_audit_creation_method RASPA-1.0
_audit_creation_date 2022-1-29
_audit_author_name 'Felipe Lopes de Oliveira <felipe.lopes.oliveira@ibm.com>'

_cell_length_a    10.8947
_cell_length_b    10.9708
_cell_length_c    13.9891
_cell_angle_alpha 81.54
_cell_angle_beta  89.016
_cell_angle_gamma 87.658
_cell_volume      1652.35

_symmetry_cell_setting          triclinic
_symmetry_space_group_name_Hall 'P 1'
_symmetry_space_group_name_H-M  'P 1'
_symmetry_Int_Tables_number     1

_symmetry_equiv_pos_as_xyz 'x,y,z'

loop_
_atom_site_label
_atom_site_type_symbol
_atom_site_fract_x
_atom_site_fract_y
_atom_site_fract_z
_atom_site_charge
Zn       Zn     0.727000000000     0.663830000000     0.607030000000     0.480145   
Zn       Zn     0.722960000000     0.622230000000     0.819240000000     0.480145   
Zn       Zn     0.273000000000     0.336170000000     0.392970000000     0.480145   
Zn       Zn     0.277040000000     0.377770000000     0.180760000000     0.480145   
H        H      0.548300000000     0.648100000000     0.451500000000     0.0507104  
H        H      0.542200000000     0.640800000000     0.290400000000     0.0507104  
H        H      0.544300000000     0.635300000000     0.981100000000     0.0507104  
H        H      0.906600000000     0.626300000000     0.137400000000     0.0507104  
H        H      0.901800000000     0.684100000000     0.438900000000     0.0507104  
H        H      0.782400000000     0.277300000000     0.583300000000     0.0507104  
H        H      0.539700000000     0.650600000000     0.140000000000     0.0507104  
H        H      0.125200000000     0.644600000000     0.571800000000     0.0507104  
H        H      0.904900000000     0.681000000000     0.276800000000     0.0507104  
H        H      0.781800000000     0.072700000000     0.574200000000     0.0507104  
H        H      0.899300000000     0.608800000000     0.978300000000     0.0507104  
H        H      0.331300000000     0.651500000000     0.572500000000     0.0507104  
H        H      0.208900000000     0.790700000000     0.945700000000     0.0507104  
H        H      0.216000000000     0.657400000000     0.005900000000     0.0507104  
H        H      0.630600000000     0.073000000000     0.000300000000     0.0507104  
H        H      0.514400000000     0.097800000000     0.933700000000     0.0507104  
H        H      0.451700000000     0.351900000000     0.548500000000     0.0507104  
H        H      0.457800000000     0.359200000000     0.709600000000     0.0507104  
H        H      0.455700000000     0.364700000000     0.018900000000     0.0507104  
H        H      0.093400000000     0.373700000000     0.862600000000     0.0507104  
H        H      0.098200000000     0.315900000000     0.561100000000     0.0507104  
H        H      0.217600000000     0.722700000000     0.416700000000     0.0507104  
H        H      0.460300000000     0.349400000000     0.860000000000     0.0507104  
H        H      0.874800000000     0.355400000000     0.428200000000     0.0507104  
H        H      0.095100000000     0.319000000000     0.723200000000     0.0507104  
H        H      0.218200000000     0.927300000000     0.425800000000     0.0507104  
H        H      0.100700000000     0.391200000000     0.021700000000     0.0507104  
H        H      0.668700000000     0.348500000000     0.427500000000     0.0507104  
H        H      0.791100000000     0.209300000000     0.054300000000     0.0507104  
H        H      0.784000000000     0.342600000000     0.994100000000     0.0507104  
H        H      0.369400000000     0.927000000000     0.999700000000     0.0507104  
H        H      0.485600000000     0.902200000000     0.066300000000     0.0507104  
C        C      0.726200000000     0.406900000000     0.723400000000     0.060761   
C        C      0.725900000000     0.271500000000     0.720800000000     0.060761   
C        C      0.957900000000     0.641900000000     0.712900000000     0.060761   
C        C      0.689400000000     0.060400000000     0.791700000000     0.060761   
C        C      0.723600000000     0.645000000000     0.159100000000     0.060761   
C        C      0.156200000000     0.664000000000     0.796800000000     0.060761   
C        C      0.621200000000     0.654400000000     0.415900000000     0.060761   
C        C      0.617200000000     0.649000000000     0.319100000000     0.060761   
C        C      0.724100000000     0.655700000000     0.263100000000     0.060761   
C        C      0.094100000000     0.653200000000     0.713900000000     0.060761   
C        C      0.618400000000     0.634100000000     0.013300000000     0.060761   
C        C      0.831000000000     0.629500000000     0.107100000000     0.060761   
C        C      0.828100000000     0.675900000000     0.408300000000     0.060761   
C        C      0.759000000000     0.223600000000     0.637600000000     0.060761   
C        C      0.614900000000     0.644200000000     0.108300000000     0.060761   
C        C      0.690000000000     0.186300000000     0.798300000000     0.060761   
C        C      0.284600000000     0.668500000000     0.796200000000     0.060761   
C        C      0.164500000000     0.649800000000     0.629500000000     0.060761   
C        C      0.489700000000     0.654900000000     0.713600000000     0.060761   
C        C      0.355600000000     0.661400000000     0.714900000000     0.060761   
C        C      0.725200000000     0.012300000000     0.708700000000     0.060761   
C        C      0.830900000000     0.672300000000     0.310900000000     0.060761   
C        C      0.758500000000     0.099200000000     0.632300000000     0.060761   
C        C      0.825800000000     0.619100000000     0.011400000000     0.060761   
C        C      0.288200000000     0.653800000000     0.630200000000     0.060761   
C        C      0.725200000000     0.877900000000     0.702600000000     0.060761   
C        C      0.214900000000     0.703300000000     0.941100000000     0.060761   
C        C      0.603500000000     0.092300000000     0.933900000000     0.060761   
C        C      0.273800000000     0.593100000000     0.276600000000     0.060761   
C        C      0.274100000000     0.728500000000     0.279200000000     0.060761   
C        C      0.042100000000     0.358100000000     0.287100000000     0.060761   
C        C      0.310600000000     0.939600000000     0.208300000000     0.060761   
C        C      0.276400000000     0.355000000000     0.840900000000     0.060761   
C        C      0.843800000000     0.336000000000     0.203200000000     0.060761   
C        C      0.378800000000     0.345600000000     0.584100000000     0.060761   
C        C      0.382800000000     0.351000000000     0.680900000000     0.060761   
C        C      0.275900000000     0.344300000000     0.736900000000     0.060761   
C        C      0.905900000000     0.346800000000     0.286100000000     0.060761   
C        C      0.381600000000     0.365900000000     0.986700000000     0.060761   
C        C      0.169000000000     0.370500000000     0.892900000000     0.060761   
C        C      0.171900000000     0.324100000000     0.591700000000     0.060761   
C        C      0.241000000000     0.776400000000     0.362400000000     0.060761   
C        C      0.385100000000     0.355800000000     0.891700000000     0.060761   
C        C      0.310000000000     0.813700000000     0.201700000000     0.060761   
C        C      0.715400000000     0.331500000000     0.203800000000     0.060761   
C        C      0.835500000000     0.350200000000     0.370500000000     0.060761   
C        C      0.510300000000     0.345100000000     0.286400000000     0.060761   
C        C      0.644400000000     0.338600000000     0.285100000000     0.060761   
C        C      0.274800000000     0.987700000000     0.291300000000     0.060761   
C        C      0.169100000000     0.327700000000     0.689100000000     0.060761   
C        C      0.241500000000     0.900800000000     0.367700000000     0.060761   
C        C      0.174200000000     0.380900000000     0.988600000000     0.060761   
C        C      0.711800000000     0.346200000000     0.369800000000     0.060761   
C        C      0.274800000000     0.122100000000     0.297400000000     0.060761   
C        C      0.785100000000     0.296700000000     0.058900000000     0.060761   
C        C      0.396500000000     0.907700000000     0.066100000000     0.060761   
N        N      0.725200000000     0.668300000000     0.461700000000    -0.159597   
N        N      0.722300000000     0.622700000000     0.962800000000    -0.159597   
N        N      0.274800000000     0.331700000000     0.538300000000    -0.159597   
N        N      0.277700000000     0.377300000000     0.037200000000    -0.159597   
O        O      0.732600000000     0.475500000000     0.644200000000    -0.262814   
O        O      0.908100000000     0.660500000000     0.631800000000    -0.262814   
O        O      0.904000000000     0.615000000000     0.792600000000    -0.262814   
O        O      0.543600000000     0.664800000000     0.633200000000    -0.262814   
O        O      0.541700000000     0.640200000000     0.792300000000    -0.262814   
O        O      0.728800000000     0.807900000000     0.780000000000    -0.262814   
O        O      0.723300000000     0.847800000000     0.621000000000    -0.262814   
O        O      0.717400000000     0.441400000000     0.804600000000    -0.262814   
O        O      0.113600000000     0.668800000000     0.887700000000    -0.262814   
O        O      0.324100000000     0.674000000000     0.888000000000    -0.262814   
O        O      0.648500000000     0.998700000000     0.878500000000    -0.262814   
O        O      0.652700000000     0.206800000000     0.888800000000    -0.262814   
O        O      0.267400000000     0.524500000000     0.355800000000    -0.262814   
O        O      0.091900000000     0.339500000000     0.368200000000    -0.262814   
O        O      0.096000000000     0.385000000000     0.207400000000    -0.262814   
O        O      0.456400000000     0.335200000000     0.366800000000    -0.262814   
O        O      0.458300000000     0.359800000000     0.207700000000    -0.262814   
O        O      0.271200000000     0.192100000000     0.220000000000    -0.262814   
O        O      0.276700000000     0.152200000000     0.379000000000    -0.262814   
O        O      0.282600000000     0.558600000000     0.195400000000    -0.262814   
O        O      0.886400000000     0.331200000000     0.112300000000    -0.262814   
O        O      0.675900000000     0.326000000000     0.112000000000    -0.262814   
O        O      0.351500000000     0.001300000000     0.121500000000    -0.262814   
O        O      0.347300000000     0.793200000000     0.111200000000    -0.262814   


