data_PIDMEV_original

_audit_creation_method RASPA-1.0
_audit_creation_date 2022-1-30
_audit_author_name 'Felipe Lopes de Oliveira <felipe.lopes.oliveira@ibm.com>'

_cell_length_a    14.7917
_cell_length_b    14.7917
_cell_length_c    16.8171
_cell_angle_alpha 102.257
_cell_angle_beta  102.257
_cell_angle_gamma 115.741
_cell_volume      3038.85

_symmetry_cell_setting          triclinic
_symmetry_space_group_name_Hall 'P 1'
_symmetry_space_group_name_H-M  'P 1'
_symmetry_Int_Tables_number     1

_symmetry_equiv_pos_as_xyz 'x,y,z'

loop_
_atom_site_label
_atom_site_type_symbol
_atom_site_fract_x
_atom_site_fract_y
_atom_site_fract_z
_atom_site_charge
Zn       Zn     0.541280000000     0.930960000000     0.931090000000     0.490981   
Zn       Zn     0.069040000000     0.458720000000     0.568910000000     0.490981   
Zn       Zn     0.458720000000     0.069040000000     0.068910000000     0.490981   
Zn       Zn     0.930960000000     0.541280000000     0.431090000000     0.490981   
Zn       Zn     0.329080000000     0.670920000000     0.750000000000     0.490981   
Zn       Zn     0.670920000000     0.329080000000     0.250000000000     0.490981   
H        H      0.494000000000     0.544600000000     0.835100000000     0.0621905  
H        H      0.589500000000     0.459300000000     0.848300000000     0.0621905  
H        H      0.862000000000     0.737800000000     0.917100000000     0.0621905  
H        H      0.762300000000     0.822500000000     0.901100000000     0.0621905  
H        H      0.125500000000     0.608100000000     0.911200000000     0.0621905  
H        H      0.990400000000     0.576400000000     0.968000000000     0.0621905  
H        H      0.803800000000     0.556000000000     0.745800000000     0.0621905  
H        H      0.937300000000     0.582500000000     0.688900000000     0.0621905  
H        H      0.623300000000     0.334700000000     0.033700000000     0.0621905  
H        H      0.705200000000     0.494200000000     0.009800000000     0.0621905  
H        H      0.799500000000     0.360900000000     0.835400000000     0.0621905  
H        H      0.722400000000     0.203600000000     0.863800000000     0.0621905  
H        H      0.455400000000     0.506000000000     0.664900000000     0.0621905  
H        H      0.540700000000     0.410500000000     0.651700000000     0.0621905  
H        H      0.262200000000     0.138000000000     0.582900000000     0.0621905  
H        H      0.177500000000     0.237700000000     0.598900000000     0.0621905  
H        H      0.391900000000     0.874500000000     0.588800000000     0.0621905  
H        H      0.423600000000     0.009600000000     0.532000000000     0.0621905  
H        H      0.444000000000     0.196200000000     0.754200000000     0.0621905  
H        H      0.417500000000     0.062700000000     0.811100000000     0.0621905  
H        H      0.665300000000     0.376700000000     0.466300000000     0.0621905  
H        H      0.505800000000     0.294800000000     0.490200000000     0.0621905  
H        H      0.639100000000     0.200500000000     0.664600000000     0.0621905  
H        H      0.796400000000     0.277600000000     0.636200000000     0.0621905  
H        H      0.506000000000     0.455400000000     0.164900000000     0.0621905  
H        H      0.410500000000     0.540700000000     0.151700000000     0.0621905  
H        H      0.138000000000     0.262200000000     0.082900000000     0.0621905  
H        H      0.237700000000     0.177500000000     0.098900000000     0.0621905  
H        H      0.874500000000     0.391900000000     0.088800000000     0.0621905  
H        H      0.009600000000     0.423600000000     0.032000000000     0.0621905  
H        H      0.196200000000     0.444000000000     0.254200000000     0.0621905  
H        H      0.062700000000     0.417500000000     0.311100000000     0.0621905  
H        H      0.376700000000     0.665300000000     0.966300000000     0.0621905  
H        H      0.294800000000     0.505800000000     0.990200000000     0.0621905  
H        H      0.200500000000     0.639100000000     0.164600000000     0.0621905  
H        H      0.277600000000     0.796400000000     0.136200000000     0.0621905  
H        H      0.544600000000     0.494000000000     0.335100000000     0.0621905  
H        H      0.459300000000     0.589500000000     0.348300000000     0.0621905  
H        H      0.737800000000     0.862000000000     0.417100000000     0.0621905  
H        H      0.822500000000     0.762300000000     0.401100000000     0.0621905  
H        H      0.608100000000     0.125500000000     0.411200000000     0.0621905  
H        H      0.576400000000     0.990400000000     0.468000000000     0.0621905  
H        H      0.556000000000     0.803800000000     0.245800000000     0.0621905  
H        H      0.582500000000     0.937300000000     0.188900000000     0.0621905  
H        H      0.334700000000     0.623300000000     0.533700000000     0.0621905  
H        H      0.494200000000     0.705200000000     0.509800000000     0.0621905  
H        H      0.360900000000     0.799500000000     0.335400000000     0.0621905  
H        H      0.203600000000     0.722400000000     0.363800000000     0.0621905  
C        C      0.552710000000     0.746090000000     0.861200000000     0.027102   
C        C      0.618150000000     0.692850000000     0.868100000000     0.027102   
C        C      0.568080000000     0.583720000000     0.851900000000     0.027102   
C        C      0.625110000000     0.532690000000     0.859900000000     0.027102   
C        C      0.736240000000     0.588760000000     0.885300000000     0.027102   
C        C      0.787910000000     0.698690000000     0.900700000000     0.027102   
C        C      0.727880000000     0.749520000000     0.891400000000     0.027102   
C        C      0.130590000000     0.609810000000     0.754600000000     0.027102   
C        C      0.045220000000     0.596580000000     0.793800000000     0.027102   
C        C      0.060050000000     0.595950000000     0.877400000000     0.027102   
C        C      0.979600000000     0.577800000000     0.911900000000     0.027102   
C        C      0.882540000000     0.561660000000     0.862400000000     0.027102   
C        C      0.868030000000     0.564970000000     0.778900000000     0.027102   
C        C      0.948130000000     0.581470000000     0.745200000000     0.027102   
C        C      0.606100000000     0.148300000000     0.963500000000     0.027102   
C        C      0.660600000000     0.251600000000     0.949000000000     0.027102   
C        C      0.657780000000     0.339420000000     0.993300000000     0.027102   
C        C      0.705800000000     0.434800000000     0.978300000000     0.027102   
C        C      0.754930000000     0.441870000000     0.916200000000     0.027102   
C        C      0.762940000000     0.355460000000     0.874500000000     0.027102   
C        C      0.716370000000     0.261230000000     0.891300000000     0.027102   
C        C      0.253910000000     0.447290000000     0.638800000000     0.027102   
C        C      0.307150000000     0.381850000000     0.631900000000     0.027102   
C        C      0.416280000000     0.431920000000     0.648100000000     0.027102   
C        C      0.467310000000     0.374890000000     0.640100000000     0.027102   
C        C      0.411240000000     0.263760000000     0.614700000000     0.027102   
C        C      0.301310000000     0.212090000000     0.599300000000     0.027102   
C        C      0.250480000000     0.272120000000     0.608600000000     0.027102   
C        C      0.390190000000     0.869410000000     0.745400000000     0.027102   
C        C      0.403420000000     0.954780000000     0.706200000000     0.027102   
C        C      0.404050000000     0.939950000000     0.622600000000     0.027102   
C        C      0.422200000000     0.020400000000     0.588100000000     0.027102   
C        C      0.438340000000     0.117460000000     0.637600000000     0.027102   
C        C      0.435030000000     0.131970000000     0.721100000000     0.027102   
C        C      0.418530000000     0.051870000000     0.754800000000     0.027102   
C        C      0.851700000000     0.393900000000     0.536500000000     0.027102   
C        C      0.748400000000     0.339400000000     0.551000000000     0.027102   
C        C      0.660580000000     0.342220000000     0.506700000000     0.027102   
C        C      0.565200000000     0.294200000000     0.521700000000     0.027102   
C        C      0.558130000000     0.245070000000     0.583800000000     0.027102   
C        C      0.644540000000     0.237060000000     0.625500000000     0.027102   
C        C      0.738770000000     0.283630000000     0.608700000000     0.027102   
C        C      0.447290000000     0.253910000000     0.138800000000     0.027102   
C        C      0.381850000000     0.307150000000     0.131900000000     0.027102   
C        C      0.431920000000     0.416280000000     0.148100000000     0.027102   
C        C      0.374890000000     0.467310000000     0.140100000000     0.027102   
C        C      0.263760000000     0.411240000000     0.114700000000     0.027102   
C        C      0.212090000000     0.301310000000     0.099300000000     0.027102   
C        C      0.272120000000     0.250480000000     0.108600000000     0.027102   
C        C      0.869410000000     0.390190000000     0.245400000000     0.027102   
C        C      0.954780000000     0.403420000000     0.206200000000     0.027102   
C        C      0.939950000000     0.404050000000     0.122600000000     0.027102   
C        C      0.020400000000     0.422200000000     0.088100000000     0.027102   
C        C      0.117460000000     0.438340000000     0.137600000000     0.027102   
C        C      0.131970000000     0.435030000000     0.221100000000     0.027102   
C        C      0.051870000000     0.418530000000     0.254800000000     0.027102   
C        C      0.393900000000     0.851700000000     0.036500000000     0.027102   
C        C      0.339400000000     0.748400000000     0.051000000000     0.027102   
C        C      0.342220000000     0.660580000000     0.006700000000     0.027102   
C        C      0.294200000000     0.565200000000     0.021700000000     0.027102   
C        C      0.245070000000     0.558130000000     0.083800000000     0.027102   
C        C      0.237060000000     0.644540000000     0.125500000000     0.027102   
C        C      0.283630000000     0.738770000000     0.108700000000     0.027102   
C        C      0.746090000000     0.552710000000     0.361200000000     0.027102   
C        C      0.692850000000     0.618150000000     0.368100000000     0.027102   
C        C      0.583720000000     0.568080000000     0.351900000000     0.027102   
C        C      0.532690000000     0.625110000000     0.359900000000     0.027102   
C        C      0.588760000000     0.736240000000     0.385300000000     0.027102   
C        C      0.698690000000     0.787910000000     0.400700000000     0.027102   
C        C      0.749520000000     0.727880000000     0.391400000000     0.027102   
C        C      0.609810000000     0.130590000000     0.254600000000     0.027102   
C        C      0.596580000000     0.045220000000     0.293800000000     0.027102   
C        C      0.595950000000     0.060050000000     0.377400000000     0.027102   
C        C      0.577800000000     0.979600000000     0.411900000000     0.027102   
C        C      0.561660000000     0.882540000000     0.362400000000     0.027102   
C        C      0.564970000000     0.868030000000     0.278900000000     0.027102   
C        C      0.581470000000     0.948130000000     0.245200000000     0.027102   
C        C      0.148300000000     0.606100000000     0.463500000000     0.027102   
C        C      0.251600000000     0.660600000000     0.449000000000     0.027102   
C        C      0.339420000000     0.657780000000     0.493300000000     0.027102   
C        C      0.434800000000     0.705800000000     0.478300000000     0.027102   
C        C      0.441870000000     0.754930000000     0.416200000000     0.027102   
C        C      0.355460000000     0.762940000000     0.374500000000     0.027102   
C        C      0.261230000000     0.716370000000     0.391300000000     0.027102   
N        N      0.797140000000     0.537460000000     0.896400000000    -0.19853    
N        N      0.462540000000     0.202860000000     0.603600000000    -0.19853    
N        N      0.202860000000     0.462540000000     0.103600000000    -0.19853    
N        N      0.537460000000     0.797140000000     0.396400000000    -0.19853    
O        O      0.452900000000     0.687500000000     0.837400000000    -0.308895   
O        O      0.600560000000     0.846640000000     0.881900000000    -0.308895   
O        O      0.220970000000     0.638430000000     0.805300000000    -0.308895   
O        O      0.110260000000     0.595140000000     0.675300000000    -0.308895   
O        O      0.548130000000     0.140870000000     0.008400000000    -0.308895   
O        O      0.616800000000     0.073200000000     0.925800000000    -0.308895   
O        O      0.312500000000     0.547100000000     0.662600000000    -0.308895   
O        O      0.153360000000     0.399440000000     0.618100000000    -0.308895   
O        O      0.361570000000     0.779030000000     0.694700000000    -0.308895   
O        O      0.404860000000     0.889740000000     0.824700000000    -0.308895   
O        O      0.859130000000     0.451870000000     0.491600000000    -0.308895   
O        O      0.926800000000     0.383200000000     0.574200000000    -0.308895   
O        O      0.547100000000     0.312500000000     0.162600000000    -0.308895   
O        O      0.399440000000     0.153360000000     0.118100000000    -0.308895   
O        O      0.779030000000     0.361570000000     0.194700000000    -0.308895   
O        O      0.889740000000     0.404860000000     0.324700000000    -0.308895   
O        O      0.451870000000     0.859130000000     0.991600000000    -0.308895   
O        O      0.383200000000     0.926800000000     0.074200000000    -0.308895   
O        O      0.687500000000     0.452900000000     0.337400000000    -0.308895   
O        O      0.846640000000     0.600560000000     0.381900000000    -0.308895   
O        O      0.638430000000     0.220970000000     0.305300000000    -0.308895   
O        O      0.595140000000     0.110260000000     0.175300000000    -0.308895   
O        O      0.140870000000     0.548130000000     0.508400000000    -0.308895   
O        O      0.073200000000     0.616800000000     0.425800000000    -0.308895   


