data_PIDMEV01_original

_audit_creation_method RASPA-1.0
_audit_creation_date 2022-1-31
_audit_author_name 'Felipe Lopes de Oliveira <felipe.lopes.oliveira@ibm.com>'

_cell_length_a    14.8112
_cell_length_b    14.8112
_cell_length_c    16.5589
_cell_angle_alpha 102.826
_cell_angle_beta  102.826
_cell_angle_gamma 115.994
_cell_volume      2964.83

_symmetry_cell_setting          triclinic
_symmetry_space_group_name_Hall 'P 1'
_symmetry_space_group_name_H-M  'P 1'
_symmetry_Int_Tables_number     1

_symmetry_equiv_pos_as_xyz 'x,y,z'

loop_
_atom_site_label
_atom_site_type_symbol
_atom_site_fract_x
_atom_site_fract_y
_atom_site_fract_z
_atom_site_charge
Zn       Zn     0.047220000000     0.434380000000     0.936190000000     0.483654   
Zn       Zn     0.565620000000     0.952780000000     0.563810000000     0.483654   
Zn       Zn     0.952780000000     0.565620000000     0.063810000000     0.483654   
Zn       Zn     0.434380000000     0.047220000000     0.436190000000     0.483654   
Zn       Zn     0.829300000000     0.170700000000     0.750000000000     0.483654   
Zn       Zn     0.170700000000     0.829300000000     0.250000000000     0.483654   
H        H      0.995200000000     0.045000000000     0.835900000000     0.0625176  
H        H      0.091900000000     0.959700000000     0.849000000000     0.0625176  
H        H      0.365500000000     0.242900000000     0.920400000000     0.0625176  
H        H      0.266600000000     0.326400000000     0.904600000000     0.0625176  
H        H      0.627700000000     0.105300000000     0.913000000000     0.0625176  
H        H      0.492500000000     0.077300000000     0.971100000000     0.0625176  
H        H      0.305100000000     0.060900000000     0.745600000000     0.0625176  
H        H      0.438000000000     0.085800000000     0.687300000000     0.0625176  
H        H      0.122900000000     0.836300000000     0.033900000000     0.0625176  
H        H      0.206300000000     0.997300000000     0.011900000000     0.0625176  
H        H      0.299300000000     0.861900000000     0.834300000000     0.0625176  
H        H      0.222200000000     0.704400000000     0.861700000000     0.0625176  
H        H      0.955000000000     0.004800000000     0.664100000000     0.0625176  
H        H      0.040300000000     0.908100000000     0.651000000000     0.0625176  
H        H      0.757100000000     0.634500000000     0.579600000000     0.0625176  
H        H      0.673600000000     0.733400000000     0.595400000000     0.0625176  
H        H      0.894700000000     0.372300000000     0.587000000000     0.0625176  
H        H      0.922700000000     0.507500000000     0.528900000000     0.0625176  
H        H      0.939100000000     0.694900000000     0.754400000000     0.0625176  
H        H      0.914200000000     0.562000000000     0.812700000000     0.0625176  
H        H      0.163700000000     0.877100000000     0.466100000000     0.0625176  
H        H      0.002700000000     0.793700000000     0.488100000000     0.0625176  
H        H      0.138100000000     0.700700000000     0.665700000000     0.0625176  
H        H      0.295600000000     0.777800000000     0.638300000000     0.0625176  
H        H      0.004800000000     0.955000000000     0.164100000000     0.0625176  
H        H      0.908100000000     0.040300000000     0.151000000000     0.0625176  
H        H      0.634500000000     0.757100000000     0.079600000000     0.0625176  
H        H      0.733400000000     0.673600000000     0.095400000000     0.0625176  
H        H      0.372300000000     0.894700000000     0.087000000000     0.0625176  
H        H      0.507500000000     0.922700000000     0.028900000000     0.0625176  
H        H      0.694900000000     0.939100000000     0.254400000000     0.0625176  
H        H      0.562000000000     0.914200000000     0.312700000000     0.0625176  
H        H      0.877100000000     0.163700000000     0.966100000000     0.0625176  
H        H      0.793700000000     0.002700000000     0.988100000000     0.0625176  
H        H      0.700700000000     0.138100000000     0.165700000000     0.0625176  
H        H      0.777800000000     0.295600000000     0.138300000000     0.0625176  
H        H      0.045000000000     0.995200000000     0.335900000000     0.0625176  
H        H      0.959700000000     0.091900000000     0.349000000000     0.0625176  
H        H      0.242900000000     0.365500000000     0.420400000000     0.0625176  
H        H      0.326400000000     0.266600000000     0.404600000000     0.0625176  
H        H      0.105300000000     0.627700000000     0.413000000000     0.0625176  
H        H      0.077300000000     0.492500000000     0.471100000000     0.0625176  
H        H      0.060900000000     0.305100000000     0.245600000000     0.0625176  
H        H      0.085800000000     0.438000000000     0.187300000000     0.0625176  
H        H      0.836300000000     0.122900000000     0.533900000000     0.0625176  
H        H      0.997300000000     0.206300000000     0.511900000000     0.0625176  
H        H      0.861900000000     0.299300000000     0.334300000000     0.0625176  
H        H      0.704400000000     0.222200000000     0.361700000000     0.0625176  
C        C      0.054380000000     0.247020000000     0.861900000000     0.0257205  
C        C      0.120640000000     0.194960000000     0.869600000000     0.0257205  
C        C      0.069780000000     0.084820000000     0.852900000000     0.0257205  
C        C      0.127700000000     0.033500000000     0.861100000000     0.0257205  
C        C      0.239900000000     0.091900000000     0.887600000000     0.0257205  
C        C      0.290990000000     0.202810000000     0.903500000000     0.0257205  
C        C      0.231630000000     0.252970000000     0.894200000000     0.0257205  
C        C      0.631570000000     0.110230000000     0.754400000000     0.0257205  
C        C      0.546090000000     0.096910000000     0.793800000000     0.0257205  
C        C      0.562640000000     0.095360000000     0.879100000000     0.0257205  
C        C      0.481460000000     0.078740000000     0.914000000000     0.0257205  
C        C      0.384710000000     0.064490000000     0.863900000000     0.0257205  
C        C      0.369270000000     0.068530000000     0.778900000000     0.0257205  
C        C      0.449030000000     0.083970000000     0.744300000000     0.0257205  
C        C      0.106800000000     0.649600000000     0.962500000000     0.0257205  
C        C      0.162000000000     0.752800000000     0.948900000000     0.0257205  
C        C      0.158500000000     0.841500000000     0.993900000000     0.0257205  
C        C      0.207260000000     0.937740000000     0.980100000000     0.0257205  
C        C      0.258210000000     0.944790000000     0.917700000000     0.0257205  
C        C      0.263850000000     0.857150000000     0.874400000000     0.0257205  
C        C      0.216900000000     0.762300000000     0.890400000000     0.0257205  
C        C      0.752980000000     0.945620000000     0.638100000000     0.0257205  
C        C      0.805040000000     0.879360000000     0.630400000000     0.0257205  
C        C      0.915180000000     0.930220000000     0.647100000000     0.0257205  
C        C      0.966500000000     0.872300000000     0.638900000000     0.0257205  
C        C      0.908100000000     0.760100000000     0.612400000000     0.0257205  
C        C      0.797190000000     0.709010000000     0.596500000000     0.0257205  
C        C      0.747030000000     0.768370000000     0.605800000000     0.0257205  
C        C      0.889770000000     0.368430000000     0.745600000000     0.0257205  
C        C      0.903090000000     0.453910000000     0.706200000000     0.0257205  
C        C      0.904640000000     0.437360000000     0.620900000000     0.0257205  
C        C      0.921260000000     0.518540000000     0.586000000000     0.0257205  
C        C      0.935510000000     0.615290000000     0.636100000000     0.0257205  
C        C      0.931470000000     0.630730000000     0.721100000000     0.0257205  
C        C      0.916030000000     0.550970000000     0.755700000000     0.0257205  
C        C      0.350400000000     0.893200000000     0.537500000000     0.0257205  
C        C      0.247200000000     0.838000000000     0.551100000000     0.0257205  
C        C      0.158500000000     0.841500000000     0.506100000000     0.0257205  
C        C      0.062260000000     0.792740000000     0.519900000000     0.0257205  
C        C      0.055210000000     0.741790000000     0.582300000000     0.0257205  
C        C      0.142850000000     0.736150000000     0.625600000000     0.0257205  
C        C      0.237700000000     0.783100000000     0.609600000000     0.0257205  
C        C      0.945620000000     0.752980000000     0.138100000000     0.0257205  
C        C      0.879360000000     0.805040000000     0.130400000000     0.0257205  
C        C      0.930220000000     0.915180000000     0.147100000000     0.0257205  
C        C      0.872300000000     0.966500000000     0.138900000000     0.0257205  
C        C      0.760100000000     0.908100000000     0.112400000000     0.0257205  
C        C      0.709010000000     0.797190000000     0.096500000000     0.0257205  
C        C      0.768370000000     0.747030000000     0.105800000000     0.0257205  
C        C      0.368430000000     0.889770000000     0.245600000000     0.0257205  
C        C      0.453910000000     0.903090000000     0.206200000000     0.0257205  
C        C      0.437360000000     0.904640000000     0.120900000000     0.0257205  
C        C      0.518540000000     0.921260000000     0.086000000000     0.0257205  
C        C      0.615290000000     0.935510000000     0.136100000000     0.0257205  
C        C      0.630730000000     0.931470000000     0.221100000000     0.0257205  
C        C      0.550970000000     0.916030000000     0.255700000000     0.0257205  
C        C      0.893200000000     0.350400000000     0.037500000000     0.0257205  
C        C      0.838000000000     0.247200000000     0.051100000000     0.0257205  
C        C      0.841500000000     0.158500000000     0.006100000000     0.0257205  
C        C      0.792740000000     0.062260000000     0.019900000000     0.0257205  
C        C      0.741790000000     0.055210000000     0.082300000000     0.0257205  
C        C      0.736150000000     0.142850000000     0.125600000000     0.0257205  
C        C      0.783100000000     0.237700000000     0.109600000000     0.0257205  
C        C      0.247020000000     0.054380000000     0.361900000000     0.0257205  
C        C      0.194960000000     0.120640000000     0.369600000000     0.0257205  
C        C      0.084820000000     0.069780000000     0.352900000000     0.0257205  
C        C      0.033500000000     0.127700000000     0.361100000000     0.0257205  
C        C      0.091900000000     0.239900000000     0.387600000000     0.0257205  
C        C      0.202810000000     0.290990000000     0.403500000000     0.0257205  
C        C      0.252970000000     0.231630000000     0.394200000000     0.0257205  
C        C      0.110230000000     0.631570000000     0.254400000000     0.0257205  
C        C      0.096910000000     0.546090000000     0.293800000000     0.0257205  
C        C      0.095360000000     0.562640000000     0.379100000000     0.0257205  
C        C      0.078740000000     0.481460000000     0.414000000000     0.0257205  
C        C      0.064490000000     0.384710000000     0.363900000000     0.0257205  
C        C      0.068530000000     0.369270000000     0.278900000000     0.0257205  
C        C      0.083970000000     0.449030000000     0.244300000000     0.0257205  
C        C      0.649600000000     0.106800000000     0.462500000000     0.0257205  
C        C      0.752800000000     0.162000000000     0.448900000000     0.0257205  
C        C      0.841500000000     0.158500000000     0.493900000000     0.0257205  
C        C      0.937740000000     0.207260000000     0.480100000000     0.0257205  
C        C      0.944790000000     0.258210000000     0.417700000000     0.0257205  
C        C      0.857150000000     0.263850000000     0.374400000000     0.0257205  
C        C      0.762300000000     0.216900000000     0.390400000000     0.0257205  
N        N      0.300300000000     0.041100000000     0.898600000000    -0.195593   
N        N      0.958900000000     0.699700000000     0.601400000000    -0.195593   
N        N      0.699700000000     0.958900000000     0.101400000000    -0.195593   
N        N      0.041100000000     0.300300000000     0.398600000000    -0.195593   
O        O      0.954460000000     0.187740000000     0.839400000000    -0.303372   
O        O      0.102580000000     0.348220000000     0.880000000000    -0.303372   
O        O      0.722350000000     0.138050000000     0.806500000000    -0.303372   
O        O      0.609940000000     0.094460000000     0.672900000000    -0.303372   
O        O      0.047200000000     0.642200000000     0.007100000000    -0.303372   
O        O      0.120200000000     0.575000000000     0.926200000000    -0.303372   
O        O      0.812260000000     0.045540000000     0.660600000000    -0.303372   
O        O      0.651780000000     0.897420000000     0.620000000000    -0.303372   
O        O      0.861950000000     0.277650000000     0.693500000000    -0.303372   
O        O      0.905540000000     0.390060000000     0.827100000000    -0.303372   
O        O      0.357800000000     0.952800000000     0.492900000000    -0.303372   
O        O      0.425000000000     0.879800000000     0.573800000000    -0.303372   
O        O      0.045540000000     0.812260000000     0.160600000000    -0.303372   
O        O      0.897420000000     0.651780000000     0.120000000000    -0.303372   
O        O      0.277650000000     0.861950000000     0.193500000000    -0.303372   
O        O      0.390060000000     0.905540000000     0.327100000000    -0.303372   
O        O      0.952800000000     0.357800000000     0.992900000000    -0.303372   
O        O      0.879800000000     0.425000000000     0.073800000000    -0.303372   
O        O      0.187740000000     0.954460000000     0.339400000000    -0.303372   
O        O      0.348220000000     0.102580000000     0.380000000000    -0.303372   
O        O      0.138050000000     0.722350000000     0.306500000000    -0.303372   
O        O      0.094460000000     0.609940000000     0.172900000000    -0.303372   
O        O      0.642200000000     0.047200000000     0.507100000000    -0.303372   
O        O      0.575000000000     0.120200000000     0.426200000000    -0.303372   


