data_PIFPIE_original

_audit_creation_method RASPA-1.0
_audit_creation_date 2022-1-29
_audit_author_name 'Felipe Lopes de Oliveira <felipe.lopes.oliveira@ibm.com>'

_cell_length_a    14.7201
_cell_length_b    14.7201
_cell_length_c    16.8
_cell_angle_alpha 102.409
_cell_angle_beta  102.409
_cell_angle_gamma 115.862
_cell_volume      2995.38

_symmetry_cell_setting          triclinic
_symmetry_space_group_name_Hall 'P 1'
_symmetry_space_group_name_H-M  'P 1'
_symmetry_Int_Tables_number     1

_symmetry_equiv_pos_as_xyz 'x,y,z'

loop_
_atom_site_label
_atom_site_type_symbol
_atom_site_fract_x
_atom_site_fract_y
_atom_site_fract_z
_atom_site_charge
Zn       Zn     0.525860000000     0.924740000000     0.918270000000     0.505291   
Zn       Zn     0.075260000000     0.474140000000     0.581730000000     0.505291   
Zn       Zn     0.474140000000     0.075260000000     0.081730000000     0.505291   
Zn       Zn     0.924740000000     0.525860000000     0.418270000000     0.505291   
Zn       Zn     0.328630000000     0.671370000000     0.750000000000     0.505291   
Zn       Zn     0.671370000000     0.328630000000     0.250000000000     0.505291   
H        H      0.491200000000     0.547800000000     0.837000000000     0.0626945  
H        H      0.585900000000     0.458500000000     0.847100000000     0.0626945  
H        H      0.861900000000     0.736700000000     0.925900000000     0.0626945  
H        H      0.765600000000     0.825400000000     0.912800000000     0.0626945  
H        H      0.124000000000     0.606000000000     0.912200000000     0.0626945  
H        H      0.986900000000     0.574300000000     0.968600000000     0.0626945  
H        H      0.801700000000     0.557900000000     0.748500000000     0.0626945  
H        H      0.937600000000     0.587000000000     0.691800000000     0.0626945  
H        H      0.613300000000     0.331100000000     0.030700000000     0.0626945  
H        H      0.696100000000     0.490500000000     0.006400000000     0.0626945  
H        H      0.797000000000     0.356600000000     0.838500000000     0.0626945  
H        H      0.723600000000     0.201400000000     0.871300000000     0.0626945  
H        H      0.452200000000     0.508800000000     0.663000000000     0.0626945  
H        H      0.541500000000     0.414100000000     0.652900000000     0.0626945  
H        H      0.263300000000     0.138100000000     0.574100000000     0.0626945  
H        H      0.174600000000     0.234400000000     0.587200000000     0.0626945  
H        H      0.394000000000     0.876000000000     0.587800000000     0.0626945  
H        H      0.425700000000     0.013100000000     0.531400000000     0.0626945  
H        H      0.442100000000     0.198300000000     0.751500000000     0.0626945  
H        H      0.413000000000     0.062400000000     0.808200000000     0.0626945  
H        H      0.668900000000     0.386700000000     0.469300000000     0.0626945  
H        H      0.509500000000     0.303900000000     0.493600000000     0.0626945  
H        H      0.643400000000     0.203000000000     0.661500000000     0.0626945  
H        H      0.798600000000     0.276400000000     0.628700000000     0.0626945  
H        H      0.508800000000     0.452200000000     0.163000000000     0.0626945  
H        H      0.414100000000     0.541500000000     0.152900000000     0.0626945  
H        H      0.138100000000     0.263300000000     0.074100000000     0.0626945  
H        H      0.234400000000     0.174600000000     0.087200000000     0.0626945  
H        H      0.876000000000     0.394000000000     0.087800000000     0.0626945  
H        H      0.013100000000     0.425700000000     0.031400000000     0.0626945  
H        H      0.198300000000     0.442100000000     0.251500000000     0.0626945  
H        H      0.062400000000     0.413000000000     0.308200000000     0.0626945  
H        H      0.386700000000     0.668900000000     0.969300000000     0.0626945  
H        H      0.303900000000     0.509500000000     0.993600000000     0.0626945  
H        H      0.203000000000     0.643400000000     0.161500000000     0.0626945  
H        H      0.276400000000     0.798600000000     0.128700000000     0.0626945  
H        H      0.547800000000     0.491200000000     0.337000000000     0.0626945  
H        H      0.458500000000     0.585900000000     0.347100000000     0.0626945  
H        H      0.736700000000     0.861900000000     0.425900000000     0.0626945  
H        H      0.825400000000     0.765600000000     0.412800000000     0.0626945  
H        H      0.606000000000     0.124000000000     0.412200000000     0.0626945  
H        H      0.574300000000     0.986900000000     0.468600000000     0.0626945  
H        H      0.557900000000     0.801700000000     0.248500000000     0.0626945  
H        H      0.587000000000     0.937600000000     0.191800000000     0.0626945  
H        H      0.331100000000     0.613300000000     0.530700000000     0.0626945  
H        H      0.490500000000     0.696100000000     0.506400000000     0.0626945  
H        H      0.356600000000     0.797000000000     0.338500000000     0.0626945  
H        H      0.201400000000     0.723600000000     0.371300000000     0.0626945  
C        C      0.555220000000     0.750980000000     0.866700000000     0.0278013  
C        C      0.618870000000     0.695930000000     0.874700000000     0.0278013  
C        C      0.566040000000     0.586360000000     0.854800000000     0.0278013  
C        C      0.623000000000     0.532800000000     0.861000000000     0.0278013  
C        C      0.733370000000     0.587630000000     0.887400000000     0.0278013  
C        C      0.787050000000     0.697950000000     0.907500000000     0.0278013  
C        C      0.729100000000     0.751300000000     0.900200000000     0.0278013  
C        C      0.130380000000     0.613620000000     0.756900000000     0.0278013  
C        C      0.044270000000     0.598530000000     0.795700000000     0.0278013  
C        C      0.058710000000     0.595290000000     0.878600000000     0.0278013  
C        C      0.976320000000     0.576080000000     0.912500000000     0.0278013  
C        C      0.880040000000     0.559960000000     0.863100000000     0.0278013  
C        C      0.866160000000     0.566040000000     0.781400000000     0.0278013  
C        C      0.948100000000     0.584300000000     0.747700000000     0.0278013  
C        C      0.601340000000     0.144060000000     0.966000000000     0.0278013  
C        C      0.657980000000     0.249020000000     0.952200000000     0.0278013  
C        C      0.650880000000     0.336120000000     0.992400000000     0.0278013  
C        C      0.698860000000     0.431140000000     0.976700000000     0.0278013  
C        C      0.751420000000     0.438780000000     0.916600000000     0.0278013  
C        C      0.760500000000     0.352300000000     0.877600000000     0.0278013  
C        C      0.715200000000     0.258600000000     0.896600000000     0.0278013  
C        C      0.249020000000     0.444780000000     0.633300000000     0.0278013  
C        C      0.304070000000     0.381130000000     0.625300000000     0.0278013  
C        C      0.413640000000     0.433960000000     0.645200000000     0.0278013  
C        C      0.467200000000     0.377000000000     0.639000000000     0.0278013  
C        C      0.412370000000     0.266630000000     0.612600000000     0.0278013  
C        C      0.302050000000     0.212950000000     0.592500000000     0.0278013  
C        C      0.248700000000     0.270900000000     0.599800000000     0.0278013  
C        C      0.386380000000     0.869620000000     0.743100000000     0.0278013  
C        C      0.401470000000     0.955730000000     0.704300000000     0.0278013  
C        C      0.404710000000     0.941290000000     0.621400000000     0.0278013  
C        C      0.423920000000     0.023680000000     0.587500000000     0.0278013  
C        C      0.440040000000     0.119960000000     0.636900000000     0.0278013  
C        C      0.433960000000     0.133840000000     0.718600000000     0.0278013  
C        C      0.415700000000     0.051900000000     0.752300000000     0.0278013  
C        C      0.855940000000     0.398660000000     0.534000000000     0.0278013  
C        C      0.750980000000     0.342020000000     0.547800000000     0.0278013  
C        C      0.663880000000     0.349120000000     0.507600000000     0.0278013  
C        C      0.568860000000     0.301140000000     0.523300000000     0.0278013  
C        C      0.561220000000     0.248580000000     0.583400000000     0.0278013  
C        C      0.647700000000     0.239500000000     0.622400000000     0.0278013  
C        C      0.741400000000     0.284800000000     0.603400000000     0.0278013  
C        C      0.444780000000     0.249020000000     0.133300000000     0.0278013  
C        C      0.381130000000     0.304070000000     0.125300000000     0.0278013  
C        C      0.433960000000     0.413640000000     0.145200000000     0.0278013  
C        C      0.377000000000     0.467200000000     0.139000000000     0.0278013  
C        C      0.266630000000     0.412370000000     0.112600000000     0.0278013  
C        C      0.212950000000     0.302050000000     0.092500000000     0.0278013  
C        C      0.270900000000     0.248700000000     0.099800000000     0.0278013  
C        C      0.869620000000     0.386380000000     0.243100000000     0.0278013  
C        C      0.955730000000     0.401470000000     0.204300000000     0.0278013  
C        C      0.941290000000     0.404710000000     0.121400000000     0.0278013  
C        C      0.023680000000     0.423920000000     0.087500000000     0.0278013  
C        C      0.119960000000     0.440040000000     0.136900000000     0.0278013  
C        C      0.133840000000     0.433960000000     0.218600000000     0.0278013  
C        C      0.051900000000     0.415700000000     0.252300000000     0.0278013  
C        C      0.398660000000     0.855940000000     0.034000000000     0.0278013  
C        C      0.342020000000     0.750980000000     0.047800000000     0.0278013  
C        C      0.349120000000     0.663880000000     0.007600000000     0.0278013  
C        C      0.301140000000     0.568860000000     0.023300000000     0.0278013  
C        C      0.248580000000     0.561220000000     0.083400000000     0.0278013  
C        C      0.239500000000     0.647700000000     0.122400000000     0.0278013  
C        C      0.284800000000     0.741400000000     0.103400000000     0.0278013  
C        C      0.750980000000     0.555220000000     0.366700000000     0.0278013  
C        C      0.695930000000     0.618870000000     0.374700000000     0.0278013  
C        C      0.586360000000     0.566040000000     0.354800000000     0.0278013  
C        C      0.532800000000     0.623000000000     0.361000000000     0.0278013  
C        C      0.587630000000     0.733370000000     0.387400000000     0.0278013  
C        C      0.697950000000     0.787050000000     0.407500000000     0.0278013  
C        C      0.751300000000     0.729100000000     0.400200000000     0.0278013  
C        C      0.613620000000     0.130380000000     0.256900000000     0.0278013  
C        C      0.598530000000     0.044270000000     0.295700000000     0.0278013  
C        C      0.595290000000     0.058710000000     0.378600000000     0.0278013  
C        C      0.576080000000     0.976320000000     0.412500000000     0.0278013  
C        C      0.559960000000     0.880040000000     0.363100000000     0.0278013  
C        C      0.566040000000     0.866160000000     0.281400000000     0.0278013  
C        C      0.584300000000     0.948100000000     0.247700000000     0.0278013  
C        C      0.144060000000     0.601340000000     0.466000000000     0.0278013  
C        C      0.249020000000     0.657980000000     0.452200000000     0.0278013  
C        C      0.336120000000     0.650880000000     0.492400000000     0.0278013  
C        C      0.431140000000     0.698860000000     0.476700000000     0.0278013  
C        C      0.438780000000     0.751420000000     0.416600000000     0.0278013  
C        C      0.352300000000     0.760500000000     0.377600000000     0.0278013  
C        C      0.258600000000     0.715200000000     0.396600000000     0.0278013  
N        N      0.793270000000     0.534090000000     0.896060000000    -0.203961   
N        N      0.465910000000     0.206730000000     0.603940000000    -0.203961   
N        N      0.206730000000     0.465910000000     0.103940000000    -0.203961   
N        N      0.534090000000     0.793270000000     0.396060000000    -0.203961   
O        O      0.453880000000     0.692060000000     0.836700000000    -0.315023   
O        O      0.604750000000     0.852370000000     0.891330000000    -0.315023   
O        O      0.221930000000     0.642170000000     0.807950000000    -0.315023   
O        O      0.108850000000     0.598190000000     0.677430000000    -0.315023   
O        O      0.528570000000     0.131350000000     0.998110000000    -0.315023   
O        O      0.625770000000     0.075190000000     0.942780000000    -0.315023   
O        O      0.307940000000     0.546120000000     0.663300000000    -0.315023   
O        O      0.147630000000     0.395250000000     0.608670000000    -0.315023   
O        O      0.357830000000     0.778070000000     0.692050000000    -0.315023   
O        O      0.401810000000     0.891150000000     0.822570000000    -0.315023   
O        O      0.868650000000     0.471430000000     0.501890000000    -0.315023   
O        O      0.924810000000     0.374230000000     0.557220000000    -0.315023   
O        O      0.546120000000     0.307940000000     0.163300000000    -0.315023   
O        O      0.395250000000     0.147630000000     0.108670000000    -0.315023   
O        O      0.778070000000     0.357830000000     0.192050000000    -0.315023   
O        O      0.891150000000     0.401810000000     0.322570000000    -0.315023   
O        O      0.471430000000     0.868650000000     0.001890000000    -0.315023   
O        O      0.374230000000     0.924810000000     0.057220000000    -0.315023   
O        O      0.692060000000     0.453880000000     0.336700000000    -0.315023   
O        O      0.852370000000     0.604750000000     0.391330000000    -0.315023   
O        O      0.642170000000     0.221930000000     0.307950000000    -0.315023   
O        O      0.598190000000     0.108850000000     0.177430000000    -0.315023   
O        O      0.131350000000     0.528570000000     0.498110000000    -0.315023   
O        O      0.075190000000     0.625770000000     0.442780000000    -0.315023   


