data_PIHNUQ_original

_audit_creation_method RASPA-1.0
_audit_creation_date 2022-1-31
_audit_author_name 'Felipe Lopes de Oliveira <felipe.lopes.oliveira@ibm.com>'

_cell_length_a    10.363
_cell_length_b    12.7428
_cell_length_c    12.7428
_cell_angle_alpha 72.178
_cell_angle_beta  86.7951
_cell_angle_gamma 86.7951
_cell_volume      1598.14

_symmetry_cell_setting          triclinic
_symmetry_space_group_name_Hall 'P 1'
_symmetry_space_group_name_H-M  'P 1'
_symmetry_Int_Tables_number     1

_symmetry_equiv_pos_as_xyz 'x,y,z'

loop_
_atom_site_label
_atom_site_type_symbol
_atom_site_fract_x
_atom_site_fract_y
_atom_site_fract_z
_atom_site_charge
Zn       Zn     0.899710000000     0.579950000000     0.021850000000     0.467421   
Zn       Zn     0.600290000000     0.978150000000     0.420050000000     0.467421   
Zn       Zn     0.100290000000     0.420050000000     0.978150000000     0.467421   
Zn       Zn     0.399710000000     0.021850000000     0.579950000000     0.467421   
H        H      0.778200000000     0.382100000000     0.352300000000     0.0732842  
H        H      0.738300000000     0.259300000000     0.524100000000     0.0732842  
H        H      0.072300000000     0.093000000000     0.492800000000     0.0732842  
H        H      0.106800000000     0.213100000000     0.318300000000     0.0732842  
H        H      0.743100000000     0.153800000000     0.693600000000     0.0732842  
H        H      0.772200000000     0.029300000000     0.757100000000     0.0732842  
H        H      0.734900000000     0.668400000000     0.179800000000     0.0732842  
H        H      0.581600000000     0.805800000000     0.175600000000     0.0732842  
H        H      0.563400000000     0.861900000000     0.852100000000     0.0732842  
H        H      0.718400000000     0.723500000000     0.863700000000     0.0732842  
H        H      0.408500000000     0.932100000000     0.073300000000     0.0732842  
H        H      0.408700000000     0.959400000000     0.944400000000     0.0732842  
H        H      0.721800000000     0.647700000000     0.617900000000     0.0732842  
H        H      0.761700000000     0.475900000000     0.740700000000     0.0732842  
H        H      0.427700000000     0.507200000000     0.907000000000     0.0732842  
H        H      0.393200000000     0.681700000000     0.786900000000     0.0732842  
H        H      0.756900000000     0.306400000000     0.846200000000     0.0732842  
H        H      0.727800000000     0.242900000000     0.970700000000     0.0732842  
H        H      0.765100000000     0.820200000000     0.331600000000     0.0732842  
H        H      0.918400000000     0.824400000000     0.194200000000     0.0732842  
H        H      0.936600000000     0.147900000000     0.138100000000     0.0732842  
H        H      0.781600000000     0.136300000000     0.276500000000     0.0732842  
H        H      0.091500000000     0.926700000000     0.067900000000     0.0732842  
H        H      0.091300000000     0.055600000000     0.040600000000     0.0732842  
H        H      0.221800000000     0.617900000000     0.647700000000     0.0732842  
H        H      0.261700000000     0.740700000000     0.475900000000     0.0732842  
H        H      0.927700000000     0.907000000000     0.507200000000     0.0732842  
H        H      0.893200000000     0.786900000000     0.681700000000     0.0732842  
H        H      0.256900000000     0.846200000000     0.306400000000     0.0732842  
H        H      0.227800000000     0.970700000000     0.242900000000     0.0732842  
H        H      0.265100000000     0.331600000000     0.820200000000     0.0732842  
H        H      0.418400000000     0.194200000000     0.824400000000     0.0732842  
H        H      0.436600000000     0.138100000000     0.147900000000     0.0732842  
H        H      0.281600000000     0.276500000000     0.136300000000     0.0732842  
H        H      0.591500000000     0.067900000000     0.926700000000     0.0732842  
H        H      0.591300000000     0.040600000000     0.055600000000     0.0732842  
H        H      0.278200000000     0.352300000000     0.382100000000     0.0732842  
H        H      0.238300000000     0.524100000000     0.259300000000     0.0732842  
H        H      0.572300000000     0.492800000000     0.093000000000     0.0732842  
H        H      0.606800000000     0.318300000000     0.213100000000     0.0732842  
H        H      0.243100000000     0.693600000000     0.153800000000     0.0732842  
H        H      0.272200000000     0.757100000000     0.029300000000     0.0732842  
H        H      0.234900000000     0.179800000000     0.668400000000     0.0732842  
H        H      0.081600000000     0.175600000000     0.805800000000     0.0732842  
H        H      0.063400000000     0.852100000000     0.861900000000     0.0732842  
H        H      0.218400000000     0.863700000000     0.723500000000     0.0732842  
H        H      0.908500000000     0.073300000000     0.932100000000     0.0732842  
H        H      0.908700000000     0.944400000000     0.959400000000     0.0732842  
C        C      0.967600000000     0.388000000000     0.203200000000     0.0165054  
C        C      0.946300000000     0.311300000000     0.315900000000     0.0165054  
C        C      0.836800000000     0.323300000000     0.379900000000     0.0165054  
C        C      0.812900000000     0.250300000000     0.483100000000     0.0165054  
C        C      0.901100000000     0.162800000000     0.525600000000     0.0165054  
C        C      0.012200000000     0.150200000000     0.464200000000     0.0165054  
C        C      0.033200000000     0.223100000000     0.359900000000     0.0165054  
C        C      0.765400000000     0.082200000000     0.684200000000     0.0165054  
C        C      0.657000000000     0.049900000000     0.625900000000     0.0165054  
C        C      0.701700000000     0.709000000000     0.112400000000     0.0165054  
C        C      0.609100000000     0.791300000000     0.110500000000     0.0165054  
C        C      0.557600000000     0.851600000000     0.012800000000     0.0165054  
C        C      0.598400000000     0.824500000000     0.919700000000     0.0165054  
C        C      0.691800000000     0.741300000000     0.927300000000     0.0165054  
C        C      0.463400000000     0.948000000000     0.006600000000     0.0165054  
C        C      0.532400000000     0.796800000000     0.612000000000     0.0165054  
C        C      0.553700000000     0.684100000000     0.688700000000     0.0165054  
C        C      0.663200000000     0.620100000000     0.676700000000     0.0165054  
C        C      0.687100000000     0.516900000000     0.749700000000     0.0165054  
C        C      0.598900000000     0.474400000000     0.837200000000     0.0165054  
C        C      0.487800000000     0.535800000000     0.849800000000     0.0165054  
C        C      0.466800000000     0.640100000000     0.776900000000     0.0165054  
C        C      0.734600000000     0.315800000000     0.917800000000     0.0165054  
C        C      0.843000000000     0.374100000000     0.950100000000     0.0165054  
C        C      0.798300000000     0.887600000000     0.291000000000     0.0165054  
C        C      0.890900000000     0.889500000000     0.208700000000     0.0165054  
C        C      0.942400000000     0.987200000000     0.148400000000     0.0165054  
C        C      0.901600000000     0.080300000000     0.175500000000     0.0165054  
C        C      0.808200000000     0.072700000000     0.258700000000     0.0165054  
C        C      0.036600000000     0.993400000000     0.052000000000     0.0165054  
C        C      0.032400000000     0.612000000000     0.796800000000     0.0165054  
C        C      0.053700000000     0.688700000000     0.684100000000     0.0165054  
C        C      0.163200000000     0.676700000000     0.620100000000     0.0165054  
C        C      0.187100000000     0.749700000000     0.516900000000     0.0165054  
C        C      0.098900000000     0.837200000000     0.474400000000     0.0165054  
C        C      0.987800000000     0.849800000000     0.535800000000     0.0165054  
C        C      0.966800000000     0.776900000000     0.640100000000     0.0165054  
C        C      0.234600000000     0.917800000000     0.315800000000     0.0165054  
C        C      0.343000000000     0.950100000000     0.374100000000     0.0165054  
C        C      0.298300000000     0.291000000000     0.887600000000     0.0165054  
C        C      0.390900000000     0.208700000000     0.889500000000     0.0165054  
C        C      0.442400000000     0.148400000000     0.987200000000     0.0165054  
C        C      0.401600000000     0.175500000000     0.080300000000     0.0165054  
C        C      0.308200000000     0.258700000000     0.072700000000     0.0165054  
C        C      0.536600000000     0.052000000000     0.993400000000     0.0165054  
C        C      0.467600000000     0.203200000000     0.388000000000     0.0165054  
C        C      0.446300000000     0.315900000000     0.311300000000     0.0165054  
C        C      0.336800000000     0.379900000000     0.323300000000     0.0165054  
C        C      0.312900000000     0.483100000000     0.250300000000     0.0165054  
C        C      0.401100000000     0.525600000000     0.162800000000     0.0165054  
C        C      0.512200000000     0.464200000000     0.150200000000     0.0165054  
C        C      0.533200000000     0.359900000000     0.223100000000     0.0165054  
C        C      0.265400000000     0.684200000000     0.082200000000     0.0165054  
C        C      0.157000000000     0.625900000000     0.049900000000     0.0165054  
C        C      0.201700000000     0.112400000000     0.709000000000     0.0165054  
C        C      0.109100000000     0.110500000000     0.791300000000     0.0165054  
C        C      0.057600000000     0.012800000000     0.851600000000     0.0165054  
C        C      0.098400000000     0.919700000000     0.824500000000     0.0165054  
C        C      0.191800000000     0.927300000000     0.741300000000     0.0165054  
C        C      0.963400000000     0.006600000000     0.948000000000     0.0165054  
N        N      0.745700000000     0.685090000000     0.021690000000    -0.181332   
N        N      0.754300000000     0.978310000000     0.314910000000    -0.181332   
N        N      0.254300000000     0.314910000000     0.978310000000    -0.181332   
N        N      0.245700000000     0.021690000000     0.685090000000    -0.181332   
O        O      0.903900000000     0.478640000000     0.177360000000    -0.282616   
O        O      0.048200000000     0.356370000000     0.139670000000    -0.282616   
O        O      0.887300000000     0.086790000000     0.627170000000    -0.282616   
O        O      0.544900000000     0.057960000000     0.667160000000    -0.282616   
O        O      0.687800000000     0.016420000000     0.545700000000    -0.282616   
O        O      0.596100000000     0.822640000000     0.521360000000    -0.282616   
O        O      0.451800000000     0.860330000000     0.643630000000    -0.282616   
O        O      0.612700000000     0.372830000000     0.913210000000    -0.282616   
O        O      0.955100000000     0.332840000000     0.942040000000    -0.282616   
O        O      0.812200000000     0.454300000000     0.983580000000    -0.282616   
O        O      0.096100000000     0.521360000000     0.822640000000    -0.282616   
O        O      0.951800000000     0.643630000000     0.860330000000    -0.282616   
O        O      0.112700000000     0.913210000000     0.372830000000    -0.282616   
O        O      0.455100000000     0.942040000000     0.332840000000    -0.282616   
O        O      0.312200000000     0.983580000000     0.454300000000    -0.282616   
O        O      0.403900000000     0.177360000000     0.478640000000    -0.282616   
O        O      0.548200000000     0.139670000000     0.356370000000    -0.282616   
O        O      0.387300000000     0.627170000000     0.086790000000    -0.282616   
O        O      0.044900000000     0.667160000000     0.057960000000    -0.282616   
O        O      0.187800000000     0.545700000000     0.016420000000    -0.282616   


