data_PIXPET_original

_audit_creation_method RASPA-1.0
_audit_creation_date 2022-1-31
_audit_author_name 'Felipe Lopes de Oliveira <felipe.lopes.oliveira@ibm.com>'

_cell_length_a    7.6229
_cell_length_b    13.9159
_cell_length_c    14.2827
_cell_angle_alpha 99.271
_cell_angle_beta  90
_cell_angle_gamma 90
_cell_volume      1495.31

_symmetry_cell_setting          triclinic
_symmetry_space_group_name_Hall 'P 1'
_symmetry_space_group_name_H-M  'P 1'
_symmetry_Int_Tables_number     1

_symmetry_equiv_pos_as_xyz 'x,y,z'

loop_
_atom_site_label
_atom_site_type_symbol
_atom_site_fract_x
_atom_site_fract_y
_atom_site_fract_z
_atom_site_charge
Zn       Zn     0.400200000000     0.250000000000     0.250000000000     0.438378   
Zn       Zn     0.599800000000     0.750000000000     0.750000000000     0.438378   
H        H      0.523200000000     0.250300000000     0.455200000000     0.0538269  
H        H      0.770400000000     0.208000000000     0.529100000000     0.0538269  
H        H      0.946500000000     0.069700000000     0.276500000000     0.0538269  
H        H      0.691300000000     0.111200000000     0.209400000000     0.0538269  
H        H      0.058300000000     0.129000000000     0.523600000000     0.0538269  
H        H      0.181400000000     0.043800000000     0.348100000000     0.0538269  
H        H      0.297600000000     0.091700000000     0.598200000000     0.0538269  
H        H      0.448400000000     0.958000000000     0.338800000000     0.0538269  
H        H      0.275400000000     0.930000000000     0.998500000000     0.0538269  
H        H      0.946600000000     0.148700000000     0.094700000000     0.0538269  
H        H      0.523200000000     0.249700000000     0.044800000000     0.0538269  
H        H      0.770400000000     0.292000000000     0.970900000000     0.0538269  
H        H      0.946500000000     0.430300000000     0.223500000000     0.0538269  
H        H      0.691300000000     0.388800000000     0.290600000000     0.0538269  
H        H      0.058300000000     0.371000000000     0.976400000000     0.0538269  
H        H      0.181400000000     0.456200000000     0.151900000000     0.0538269  
H        H      0.297600000000     0.408300000000     0.901800000000     0.0538269  
H        H      0.448400000000     0.542000000000     0.161200000000     0.0538269  
H        H      0.275400000000     0.570000000000     0.501500000000     0.0538269  
H        H      0.946600000000     0.351300000000     0.405300000000     0.0538269  
H        H      0.476800000000     0.749700000000     0.544800000000     0.0538269  
H        H      0.229600000000     0.792000000000     0.470900000000     0.0538269  
H        H      0.053500000000     0.930300000000     0.723500000000     0.0538269  
H        H      0.308700000000     0.888800000000     0.790600000000     0.0538269  
H        H      0.941700000000     0.871000000000     0.476400000000     0.0538269  
H        H      0.818600000000     0.956200000000     0.651900000000     0.0538269  
H        H      0.702400000000     0.908300000000     0.401800000000     0.0538269  
H        H      0.551600000000     0.042000000000     0.661200000000     0.0538269  
H        H      0.724600000000     0.070000000000     0.001500000000     0.0538269  
H        H      0.053400000000     0.851300000000     0.905300000000     0.0538269  
H        H      0.476800000000     0.750300000000     0.955200000000     0.0538269  
H        H      0.229600000000     0.708000000000     0.029100000000     0.0538269  
H        H      0.053500000000     0.569700000000     0.776500000000     0.0538269  
H        H      0.308700000000     0.611200000000     0.709400000000     0.0538269  
H        H      0.941700000000     0.629000000000     0.023600000000     0.0538269  
H        H      0.818600000000     0.543800000000     0.848100000000     0.0538269  
H        H      0.702400000000     0.591700000000     0.098200000000     0.0538269  
H        H      0.551600000000     0.458000000000     0.838800000000     0.0538269  
H        H      0.724600000000     0.430000000000     0.498500000000     0.0538269  
H        H      0.053400000000     0.648700000000     0.594700000000     0.0538269  
C        C      0.610800000000     0.212900000000     0.418500000000     0.00142471 
C        C      0.757700000000     0.188100000000     0.462600000000     0.00142471 
C        C      0.890900000000     0.133500000000     0.411500000000     0.00142471 
C        C      0.860800000000     0.106500000000     0.315100000000     0.00142471 
C        C      0.709100000000     0.132500000000     0.275300000000     0.00142471 
C        C      0.050500000000     0.108800000000     0.456900000000     0.00142471 
C        C      0.187000000000     0.060700000000     0.415100000000     0.00142471 
C        C      0.344900000000     0.030800000000     0.460400000000     0.00142471 
C        C      0.380200000000     0.054400000000     0.557800000000     0.00142471 
C        C      0.469200000000     0.975600000000     0.404900000000     0.00142471 
C        C      0.270900000000     0.095700000000     0.122900000000     0.00142471 
C        C      0.131100000000     0.045100000000     0.059000000000     0.00142471 
C        C      0.162000000000     0.958600000000     0.000000000000     0.00142471 
C        C      0.968800000000     0.087300000000     0.056700000000     0.00142471 
C        C      0.610800000000     0.287100000000     0.081500000000     0.00142471 
C        C      0.757700000000     0.311900000000     0.037400000000     0.00142471 
C        C      0.890900000000     0.366500000000     0.088500000000     0.00142471 
C        C      0.860800000000     0.393500000000     0.184900000000     0.00142471 
C        C      0.709100000000     0.367500000000     0.224700000000     0.00142471 
C        C      0.050500000000     0.391200000000     0.043100000000     0.00142471 
C        C      0.187000000000     0.439300000000     0.084900000000     0.00142471 
C        C      0.344900000000     0.469200000000     0.039600000000     0.00142471 
C        C      0.380200000000     0.445600000000     0.942200000000     0.00142471 
C        C      0.469200000000     0.524400000000     0.095100000000     0.00142471 
C        C      0.270900000000     0.404300000000     0.377100000000     0.00142471 
C        C      0.131100000000     0.454900000000     0.441000000000     0.00142471 
C        C      0.162000000000     0.541400000000     0.500000000000     0.00142471 
C        C      0.968800000000     0.412700000000     0.443300000000     0.00142471 
C        C      0.389200000000     0.787100000000     0.581500000000     0.00142471 
C        C      0.242300000000     0.811900000000     0.537400000000     0.00142471 
C        C      0.109100000000     0.866500000000     0.588500000000     0.00142471 
C        C      0.139200000000     0.893500000000     0.684900000000     0.00142471 
C        C      0.290900000000     0.867500000000     0.724700000000     0.00142471 
C        C      0.949500000000     0.891200000000     0.543100000000     0.00142471 
C        C      0.813000000000     0.939300000000     0.584900000000     0.00142471 
C        C      0.655100000000     0.969200000000     0.539600000000     0.00142471 
C        C      0.619800000000     0.945600000000     0.442200000000     0.00142471 
C        C      0.530800000000     0.024400000000     0.595100000000     0.00142471 
C        C      0.729100000000     0.904300000000     0.877100000000     0.00142471 
C        C      0.868900000000     0.954900000000     0.941000000000     0.00142471 
C        C      0.838000000000     0.041400000000     0.000000000000     0.00142471 
C        C      0.031200000000     0.912700000000     0.943300000000     0.00142471 
C        C      0.389200000000     0.712900000000     0.918500000000     0.00142471 
C        C      0.242300000000     0.688100000000     0.962600000000     0.00142471 
C        C      0.109100000000     0.633500000000     0.911500000000     0.00142471 
C        C      0.139200000000     0.606500000000     0.815100000000     0.00142471 
C        C      0.290900000000     0.632500000000     0.775300000000     0.00142471 
C        C      0.949500000000     0.608800000000     0.956900000000     0.00142471 
C        C      0.813000000000     0.560700000000     0.915100000000     0.00142471 
C        C      0.655100000000     0.530800000000     0.960400000000     0.00142471 
C        C      0.619800000000     0.554400000000     0.057800000000     0.00142471 
C        C      0.530800000000     0.475600000000     0.904900000000     0.00142471 
C        C      0.729100000000     0.595700000000     0.622900000000     0.00142471 
C        C      0.868900000000     0.545100000000     0.559000000000     0.00142471 
C        C      0.838000000000     0.458600000000     0.500000000000     0.00142471 
C        C      0.031200000000     0.587300000000     0.556700000000     0.00142471 
N        N      0.584500000000     0.186200000000     0.323900000000    -0.174972   
N        N      0.584500000000     0.313800000000     0.176100000000    -0.174972   
N        N      0.415500000000     0.813800000000     0.676100000000    -0.174972   
N        N      0.415500000000     0.686200000000     0.823900000000    -0.174972   
O        O      0.237400000000     0.176900000000     0.165700000000    -0.301216   
O        O      0.412900000000     0.059400000000     0.126700000000    -0.301216   
O        O      0.237400000000     0.323100000000     0.334300000000    -0.301216   
O        O      0.412900000000     0.440600000000     0.373300000000    -0.301216   
O        O      0.762600000000     0.823100000000     0.834300000000    -0.301216   
O        O      0.587100000000     0.940600000000     0.873300000000    -0.301216   
O        O      0.762600000000     0.676900000000     0.665700000000    -0.301216   
O        O      0.587100000000     0.559400000000     0.626700000000    -0.301216   


