data_POJTOY01_original

_audit_creation_method RASPA-1.0
_audit_creation_date 2022-1-31
_audit_author_name 'Felipe Lopes de Oliveira <felipe.lopes.oliveira@ibm.com>'

_cell_length_a    6.8865
_cell_length_b    10.5579
_cell_length_c    13.4662
_cell_angle_alpha 70.144
_cell_angle_beta  88.058
_cell_angle_gamma 76.033
_cell_volume      892.412

_symmetry_cell_setting          triclinic
_symmetry_space_group_name_Hall 'P 1'
_symmetry_space_group_name_H-M  'P 1'
_symmetry_Int_Tables_number     1

_symmetry_equiv_pos_as_xyz 'x,y,z'

loop_
_atom_site_label
_atom_site_type_symbol
_atom_site_fract_x
_atom_site_fract_y
_atom_site_fract_z
_atom_site_charge
Fe       Fe     0.530800000000     0.496800000000     0.722300000000     1.02153    
Fe       Fe     0.026600000000     0.495600000000     0.712800000000     1.02153    
Fe       Fe     0.469200000000     0.503200000000     0.277700000000     1.02153    
Fe       Fe     0.973400000000     0.504400000000     0.287200000000     1.02153    
H        H      0.828700000000     0.830200000000     0.506400000000     0.0541224  
H        H      0.340000000000     0.933500000000     0.556700000000     0.0541224  
H        H      0.736300000000     0.145500000000     0.681600000000     0.0541224  
H        H      0.879200000000     0.907800000000     0.716900000000     0.0541224  
H        H      0.332200000000     0.826800000000     0.786400000000     0.0541224  
H        H      0.189300000000     0.064500000000     0.751100000000     0.0541224  
H        H      0.210300000000     0.154000000000     0.961500000000     0.0541224  
H        H      0.662000000000     0.081600000000     0.938600000000     0.0541224  
H        H      0.171300000000     0.169800000000     0.493600000000     0.0541224  
H        H      0.660000000000     0.066500000000     0.443300000000     0.0541224  
H        H      0.263700000000     0.854500000000     0.318400000000     0.0541224  
H        H      0.120800000000     0.092200000000     0.283100000000     0.0541224  
H        H      0.667800000000     0.173200000000     0.213600000000     0.0541224  
H        H      0.810700000000     0.935500000000     0.248900000000     0.0541224  
H        H      0.789700000000     0.846000000000     0.038500000000     0.0541224  
H        H      0.338000000000     0.918400000000     0.061400000000     0.0541224  
C        C      0.098400000000     0.862300000000     0.536800000000     0.0658355  
C        C      0.900100000000     0.901000000000     0.503700000000     0.0658355  
C        C      0.198200000000     0.961300000000     0.533000000000     0.0658355  
C        C      0.208200000000     0.708500000000     0.577800000000     0.0658355  
C        C      0.450900000000     0.124700000000     0.713400000000     0.0658355  
C        C      0.652000000000     0.079100000000     0.703400000000     0.0658355  
C        C      0.735300000000     0.940500000000     0.724000000000     0.0658355  
C        C      0.617600000000     0.847600000000     0.754600000000     0.0658355  
C        C      0.416500000000     0.893200000000     0.764600000000     0.0658355  
C        C      0.333200000000     0.031800000000     0.743900000000     0.0658355  
C        C      0.360900000000     0.274500000000     0.691100000000     0.0658355  
C        C      0.707600000000     0.697800000000     0.776900000000     0.0658355  
C        C      0.925500000000     0.137300000000     0.941700000000     0.0658355  
C        C      0.122600000000     0.089800000000     0.977500000000     0.0658355  
C        C      0.803000000000     0.047600000000     0.964200000000     0.0658355  
C        C      0.844600000000     0.286700000000     0.878400000000     0.0658355  
C        C      0.901600000000     0.137700000000     0.463200000000     0.0658355  
C        C      0.099900000000     0.099000000000     0.496300000000     0.0658355  
C        C      0.801800000000     0.038700000000     0.467000000000     0.0658355  
C        C      0.791800000000     0.291500000000     0.422200000000     0.0658355  
C        C      0.549100000000     0.875300000000     0.286600000000     0.0658355  
C        C      0.348000000000     0.920900000000     0.296600000000     0.0658355  
C        C      0.264700000000     0.059500000000     0.276000000000     0.0658355  
C        C      0.382400000000     0.152400000000     0.245400000000     0.0658355  
C        C      0.583500000000     0.106800000000     0.235400000000     0.0658355  
C        C      0.666800000000     0.968200000000     0.256100000000     0.0658355  
C        C      0.639100000000     0.725500000000     0.308900000000     0.0658355  
C        C      0.292400000000     0.302200000000     0.223100000000     0.0658355  
C        C      0.074500000000     0.862700000000     0.058300000000     0.0658355  
C        C      0.877400000000     0.910200000000     0.022500000000     0.0658355  
C        C      0.197000000000     0.952400000000     0.035800000000     0.0658355  
C        C      0.155400000000     0.713300000000     0.121600000000     0.0658355  
O        O      0.275000000000     0.494800000000     0.785000000000    -0.352941   
O        O      0.783700000000     0.504200000000     0.642000000000    -0.352941   
O        O      0.117000000000     0.616900000000     0.578900000000    -0.352941   
O        O      0.390600000000     0.672400000000     0.610800000000    -0.352941   
O        O      0.467500000000     0.361600000000     0.656600000000    -0.352941   
O        O      0.177100000000     0.315900000000     0.706400000000    -0.352941   
O        O      0.895300000000     0.654600000000     0.772500000000    -0.352941   
O        O      0.597000000000     0.612500000000     0.800400000000    -0.352941   
O        O      0.956800000000     0.370600000000     0.860100000000    -0.352941   
O        O      0.663500000000     0.330000000000     0.842700000000    -0.352941   
O        O      0.725000000000     0.505200000000     0.215000000000    -0.352941   
O        O      0.216300000000     0.495800000000     0.358000000000    -0.352941   
O        O      0.883000000000     0.383100000000     0.421100000000    -0.352941   
O        O      0.609400000000     0.327600000000     0.389200000000    -0.352941   
O        O      0.532500000000     0.638400000000     0.343400000000    -0.352941   
O        O      0.822900000000     0.684100000000     0.293600000000    -0.352941   
O        O      0.104700000000     0.345400000000     0.227500000000    -0.352941   
O        O      0.403000000000     0.387500000000     0.199600000000    -0.352941   
O        O      0.043200000000     0.629400000000     0.139900000000    -0.352941   
O        O      0.336500000000     0.670000000000     0.157300000000    -0.352941   


