data_PUPNAQ_original

_audit_creation_method RASPA-1.0
_audit_creation_date 2022-1-29
_audit_author_name 'Felipe Lopes de Oliveira <felipe.lopes.oliveira@ibm.com>'

_cell_length_a    6.889
_cell_length_b    11.606
_cell_length_c    23.851
_cell_angle_alpha 90
_cell_angle_beta  90
_cell_angle_gamma 96.082
_cell_volume      1896.24

_symmetry_cell_setting          triclinic
_symmetry_space_group_name_Hall 'P 1'
_symmetry_space_group_name_H-M  'P 1'
_symmetry_Int_Tables_number     1

_symmetry_equiv_pos_as_xyz 'x,y,z'

loop_
_atom_site_label
_atom_site_type_symbol
_atom_site_fract_x
_atom_site_fract_y
_atom_site_fract_z
_atom_site_charge
Zn       Zn     0.131260000000     0.141800000000     0.481840000000     0.46104    
Zn       Zn     0.868740000000     0.358200000000     0.981840000000     0.46104    
Zn       Zn     0.868740000000     0.858200000000     0.518150000000     0.46104    
Zn       Zn     0.131260000000     0.641800000000     0.018150000000     0.46104    
H        H      0.521400000000     0.446400000000     0.585500000000     0.0550265  
H        H      0.843200000000     0.507800000000     0.586600000000     0.0550265  
H        H      0.149600000000     0.608200000000     0.573200000000     0.0550265  
H        H      0.569900000000     0.258600000000     0.450000000000     0.0550265  
H        H      0.225300000000     0.319700000000     0.577200000000     0.0550265  
H        H      0.638600000000     0.311500000000     0.699400000000     0.0550265  
H        H      0.840700000000     0.263200000000     0.627300000000     0.0550265  
H        H      0.441800000000     0.999900000000     0.582300000000     0.0550265  
H        H      0.239300000000     0.047000000000     0.654900000000     0.0550265  
H        H      0.510800000000     0.288900000000     0.782900000000     0.0550265  
H        H      0.316200000000     0.329000000000     0.858300000000     0.0550265  
H        H      0.838800000000     0.185700000000     0.776300000000     0.0550265  
H        H      0.032200000000     0.143400000000     0.701000000000     0.0550265  
H        H      0.478600000000     0.053600000000     0.085500000000     0.0550265  
H        H      0.156800000000     0.992200000000     0.086600000000     0.0550265  
H        H      0.850400000000     0.891800000000     0.073200000000     0.0550265  
H        H      0.430100000000     0.241400000000     0.950000000000     0.0550265  
H        H      0.774700000000     0.180300000000     0.077200000000     0.0550265  
H        H      0.361400000000     0.188500000000     0.199400000000     0.0550265  
H        H      0.159300000000     0.236800000000     0.127300000000     0.0550265  
H        H      0.558200000000     0.500100000000     0.082300000000     0.0550265  
H        H      0.760700000000     0.453000000000     0.154900000000     0.0550265  
H        H      0.489200000000     0.211100000000     0.282900000000     0.0550265  
H        H      0.683800000000     0.171000000000     0.358300000000     0.0550265  
H        H      0.161200000000     0.314300000000     0.276300000000     0.0550265  
H        H      0.967800000000     0.356600000000     0.201000000000     0.0550265  
H        H      0.478600000000     0.553600000000     0.414500000000     0.0550265  
H        H      0.156800000000     0.492200000000     0.413400000000     0.0550265  
H        H      0.850400000000     0.391800000000     0.426800000000     0.0550265  
H        H      0.430100000000     0.741400000000     0.550000000000     0.0550265  
H        H      0.774700000000     0.680300000000     0.422800000000     0.0550265  
H        H      0.361400000000     0.688500000000     0.300600000000     0.0550265  
H        H      0.159300000000     0.736800000000     0.372700000000     0.0550265  
H        H      0.558200000000     0.000100000000     0.417700000000     0.0550265  
H        H      0.760700000000     0.953000000000     0.345100000000     0.0550265  
H        H      0.489200000000     0.711100000000     0.217100000000     0.0550265  
H        H      0.683800000000     0.671000000000     0.141700000000     0.0550265  
H        H      0.161200000000     0.814300000000     0.223700000000     0.0550265  
H        H      0.967800000000     0.856600000000     0.299000000000     0.0550265  
H        H      0.521400000000     0.946400000000     0.914500000000     0.0550265  
H        H      0.843200000000     0.007800000000     0.913400000000     0.0550265  
H        H      0.149600000000     0.108200000000     0.926800000000     0.0550265  
H        H      0.569900000000     0.758600000000     0.050000000000     0.0550265  
H        H      0.225300000000     0.819700000000     0.922800000000     0.0550265  
H        H      0.638600000000     0.811500000000     0.800600000000     0.0550265  
H        H      0.840700000000     0.763200000000     0.872700000000     0.0550265  
H        H      0.441800000000     0.499900000000     0.917700000000     0.0550265  
H        H      0.239300000000     0.547000000000     0.845100000000     0.0550265  
H        H      0.510800000000     0.788900000000     0.717100000000     0.0550265  
H        H      0.316200000000     0.829000000000     0.641700000000     0.0550265  
H        H      0.838800000000     0.685700000000     0.723700000000     0.0550265  
H        H      0.032200000000     0.643400000000     0.799000000000     0.0550265  
C        C      0.814300000000     0.439000000000     0.508030000000     0.0183503  
C        C      0.906200000000     0.504300000000     0.551300000000     0.0183503  
C        C      0.088900000000     0.564100000000     0.543240000000     0.0183503  
C        C      0.621000000000     0.375300000000     0.514700000000     0.0183503  
C        C      0.522100000000     0.290900000000     0.483200000000     0.0183503  
C        C      0.333400000000     0.323800000000     0.552260000000     0.0183503  
C        C      0.418500000000     0.182800000000     0.685700000000     0.0183503  
C        C      0.598400000000     0.247000000000     0.676050000000     0.0183503  
C        C      0.718800000000     0.218300000000     0.633060000000     0.0183503  
C        C      0.664100000000     0.125200000000     0.598450000000     0.0183503  
C        C      0.483100000000     0.062600000000     0.606540000000     0.0183503  
C        C      0.362400000000     0.091000000000     0.649760000000     0.0183503  
C        C      0.799200000000     0.091100000000     0.553500000000     0.0183503  
C        C      0.293000000000     0.210400000000     0.733630000000     0.0183503  
C        C      0.374000000000     0.267000000000     0.781300000000     0.0183503  
C        C      0.257700000000     0.291500000000     0.826170000000     0.0183503  
C        C      0.057000000000     0.262100000000     0.825030000000     0.0183503  
C        C      0.975800000000     0.206700000000     0.777880000000     0.0183503  
C        C      0.091500000000     0.181400000000     0.732930000000     0.0183503  
C        C      0.932600000000     0.289500000000     0.874150000000     0.0183503  
C        C      0.185700000000     0.061000000000     0.008030000000     0.0183503  
C        C      0.093800000000     0.995700000000     0.051300000000     0.0183503  
C        C      0.911100000000     0.935900000000     0.043240000000     0.0183503  
C        C      0.379000000000     0.124700000000     0.014700000000     0.0183503  
C        C      0.477900000000     0.209100000000     0.983200000000     0.0183503  
C        C      0.666600000000     0.176200000000     0.052260000000     0.0183503  
C        C      0.581500000000     0.317200000000     0.185700000000     0.0183503  
C        C      0.401600000000     0.253000000000     0.176050000000     0.0183503  
C        C      0.281200000000     0.281700000000     0.133060000000     0.0183503  
C        C      0.335900000000     0.374800000000     0.098450000000     0.0183503  
C        C      0.516900000000     0.437400000000     0.106540000000     0.0183503  
C        C      0.637600000000     0.409000000000     0.149760000000     0.0183503  
C        C      0.200800000000     0.408900000000     0.053500000000     0.0183503  
C        C      0.707000000000     0.289600000000     0.233630000000     0.0183503  
C        C      0.626000000000     0.233000000000     0.281300000000     0.0183503  
C        C      0.742300000000     0.208500000000     0.326170000000     0.0183503  
C        C      0.943000000000     0.237900000000     0.325030000000     0.0183503  
C        C      0.024200000000     0.293300000000     0.277880000000     0.0183503  
C        C      0.908500000000     0.318600000000     0.232930000000     0.0183503  
C        C      0.067400000000     0.210500000000     0.374150000000     0.0183503  
C        C      0.185700000000     0.561000000000     0.491970000000     0.0183503  
C        C      0.093800000000     0.495700000000     0.448700000000     0.0183503  
C        C      0.911100000000     0.435900000000     0.456760000000     0.0183503  
C        C      0.379000000000     0.624700000000     0.485300000000     0.0183503  
C        C      0.477900000000     0.709100000000     0.516800000000     0.0183503  
C        C      0.666600000000     0.676200000000     0.447740000000     0.0183503  
C        C      0.581500000000     0.817200000000     0.314300000000     0.0183503  
C        C      0.401600000000     0.753000000000     0.323950000000     0.0183503  
C        C      0.281200000000     0.781700000000     0.366940000000     0.0183503  
C        C      0.335900000000     0.874800000000     0.401550000000     0.0183503  
C        C      0.516900000000     0.937400000000     0.393460000000     0.0183503  
C        C      0.637600000000     0.909000000000     0.350240000000     0.0183503  
C        C      0.200800000000     0.908900000000     0.446500000000     0.0183503  
C        C      0.707000000000     0.789600000000     0.266370000000     0.0183503  
C        C      0.626000000000     0.733000000000     0.218700000000     0.0183503  
C        C      0.742300000000     0.708500000000     0.173830000000     0.0183503  
C        C      0.943000000000     0.737900000000     0.174970000000     0.0183503  
C        C      0.024200000000     0.793300000000     0.222120000000     0.0183503  
C        C      0.908500000000     0.818600000000     0.267070000000     0.0183503  
C        C      0.067400000000     0.710500000000     0.125850000000     0.0183503  
C        C      0.814300000000     0.939000000000     0.991970000000     0.0183503  
C        C      0.906200000000     0.004300000000     0.948700000000     0.0183503  
C        C      0.088900000000     0.064100000000     0.956760000000     0.0183503  
C        C      0.621000000000     0.875300000000     0.985300000000     0.0183503  
C        C      0.522100000000     0.790900000000     0.016800000000     0.0183503  
C        C      0.333400000000     0.823800000000     0.947740000000     0.0183503  
C        C      0.418500000000     0.682800000000     0.814300000000     0.0183503  
C        C      0.598400000000     0.747000000000     0.823950000000     0.0183503  
C        C      0.718800000000     0.718300000000     0.866940000000     0.0183503  
C        C      0.664100000000     0.625200000000     0.901550000000     0.0183503  
C        C      0.483100000000     0.562600000000     0.893460000000     0.0183503  
C        C      0.362400000000     0.591000000000     0.850240000000     0.0183503  
C        C      0.799200000000     0.591100000000     0.946500000000     0.0183503  
C        C      0.293000000000     0.710400000000     0.766370000000     0.0183503  
C        C      0.374000000000     0.767000000000     0.718700000000     0.0183503  
C        C      0.257700000000     0.791500000000     0.673830000000     0.0183503  
C        C      0.057000000000     0.762100000000     0.674970000000     0.0183503  
C        C      0.975800000000     0.706700000000     0.722120000000     0.0183503  
C        C      0.091500000000     0.681400000000     0.767070000000     0.0183503  
C        C      0.932600000000     0.789500000000     0.625850000000     0.0183503  
N        N      0.496900000000     0.395400000000     0.558430000000    -0.185351   
N        N      0.342000000000     0.259500000000     0.506860000000    -0.185351   
N        N      0.503100000000     0.104600000000     0.058430000000    -0.185351   
N        N      0.658000000000     0.240500000000     0.006860000000    -0.185351   
N        N      0.503100000000     0.604600000000     0.441570000000    -0.185351   
N        N      0.658000000000     0.740500000000     0.493140000000    -0.185351   
N        N      0.496900000000     0.895400000000     0.941570000000    -0.185351   
N        N      0.342000000000     0.759500000000     0.993140000000    -0.185351   
O        O      0.958900000000     0.153700000000     0.547230000000    -0.293172   
O        O      0.747300000000     0.001380000000     0.524990000000    -0.293172   
O        O      0.023900000000     0.341800000000     0.914920000000    -0.293172   
O        O      0.753400000000     0.261500000000     0.873210000000    -0.293172   
O        O      0.041100000000     0.346300000000     0.047230000000    -0.293172   
O        O      0.252700000000     0.498620000000     0.024990000000    -0.293172   
O        O      0.976100000000     0.158200000000     0.414920000000    -0.293172   
O        O      0.246600000000     0.238500000000     0.373210000000    -0.293172   
O        O      0.041100000000     0.846300000000     0.452770000000    -0.293172   
O        O      0.252700000000     0.998620000000     0.475010000000    -0.293172   
O        O      0.976100000000     0.658200000000     0.085080000000    -0.293172   
O        O      0.246600000000     0.738500000000     0.126790000000    -0.293172   
O        O      0.958900000000     0.653700000000     0.952770000000    -0.293172   
O        O      0.747300000000     0.501380000000     0.975010000000    -0.293172   
O        O      0.023900000000     0.841800000000     0.585080000000    -0.293172   
O        O      0.753400000000     0.761500000000     0.626790000000    -0.293172   


