data_PUQHIT_original

_audit_creation_method RASPA-1.0
_audit_creation_date 2022-1-31
_audit_author_name 'Felipe Lopes de Oliveira <felipe.lopes.oliveira@ibm.com>'

_cell_length_a    9.8401
_cell_length_b    11.0617
_cell_length_c    13.5307
_cell_angle_alpha 66.181
_cell_angle_beta  85.823
_cell_angle_gamma 69.89
_cell_volume      1261.47

_symmetry_cell_setting          triclinic
_symmetry_space_group_name_Hall 'P 1'
_symmetry_space_group_name_H-M  'P 1'
_symmetry_Int_Tables_number     1

_symmetry_equiv_pos_as_xyz 'x,y,z'

loop_
_atom_site_label
_atom_site_type_symbol
_atom_site_fract_x
_atom_site_fract_y
_atom_site_fract_z
_atom_site_charge
Zn       Zn     0.111340000000     0.472950000000     0.204200000000     0.457437   
Zn       Zn     0.168580000000     0.445900000000     0.982520000000     0.457437   
Zn       Zn     0.888660000000     0.527050000000     0.795800000000     0.457437   
Zn       Zn     0.831420000000     0.554100000000     0.017480000000     0.457437   
H        H      0.122800000000     0.906300000000     0.103900000000     0.0666634  
H        H      0.327100000000     0.135600000000     0.871300000000     0.0666634  
H        H      0.353400000000     0.750600000000     0.895200000000     0.0666634  
H        H      0.418100000000     0.837200000000     0.732000000000     0.0666634  
H        H      0.522600000000     0.919000000000     0.664100000000     0.0666634  
H        H      0.204300000000     0.673100000000     0.767900000000     0.0666634  
H        H      0.352300000000     0.701700000000     0.625900000000     0.0666634  
H        H      0.602800000000     0.293600000000     0.781100000000     0.0666634  
H        H      0.447200000000     0.276000000000     0.919200000000     0.0666634  
H        H      0.559300000000     0.610300000000     0.536400000000     0.0666634  
H        H      0.748600000000     0.346900000000     0.655400000000     0.0666634  
H        H      0.711400000000     0.661400000000     0.408700000000     0.0666634  
H        H      0.868900000000     0.671900000000     0.269400000000     0.0666634  
H        H      0.080600000000     0.266700000000     0.419200000000     0.0666634  
H        H      0.938900000000     0.247400000000     0.561300000000     0.0666634  
H        H      0.877200000000     0.093700000000     0.896100000000     0.0666634  
H        H      0.672900000000     0.864400000000     0.128700000000     0.0666634  
H        H      0.646600000000     0.249400000000     0.104800000000     0.0666634  
H        H      0.581900000000     0.162800000000     0.268000000000     0.0666634  
H        H      0.477400000000     0.081000000000     0.335900000000     0.0666634  
H        H      0.795700000000     0.326900000000     0.232100000000     0.0666634  
H        H      0.647700000000     0.298300000000     0.374100000000     0.0666634  
H        H      0.397200000000     0.706400000000     0.218900000000     0.0666634  
H        H      0.552800000000     0.724000000000     0.080800000000     0.0666634  
H        H      0.440700000000     0.389700000000     0.463600000000     0.0666634  
H        H      0.251400000000     0.653100000000     0.344600000000     0.0666634  
H        H      0.288600000000     0.338600000000     0.591300000000     0.0666634  
H        H      0.131100000000     0.328100000000     0.730600000000     0.0666634  
H        H      0.919400000000     0.733300000000     0.580800000000     0.0666634  
H        H      0.061100000000     0.752600000000     0.438700000000     0.0666634  
C        C      0.191000000000     0.681600000000     0.054600000000     0.0232144  
C        C      0.229400000000     0.813700000000     0.004300000000     0.0232144  
C        C      0.179700000000     0.917500000000     0.043200000000     0.0232144  
C        C      0.215000000000     0.041000000000     0.991100000000     0.0232144  
C        C      0.303500000000     0.052500000000     0.906300000000     0.0232144  
C        C      0.358500000000     0.943500000000     0.871700000000     0.0232144  
C        C      0.319000000000     0.824100000000     0.920000000000     0.0232144  
C        C      0.497400000000     0.870200000000     0.738400000000     0.0232144  
C        C      0.628700000000     0.742900000000     0.799400000000     0.0232144  
C        C      0.155200000000     0.164300000000     0.025600000000     0.0232144  
C        C      0.286300000000     0.594600000000     0.770800000000     0.0232144  
C        C      0.374900000000     0.612900000000     0.685700000000     0.0232144  
C        C      0.496200000000     0.501500000000     0.688000000000     0.0232144  
C        C      0.521600000000     0.373600000000     0.776700000000     0.0232144  
C        C      0.427700000000     0.363700000000     0.858700000000     0.0232144  
C        C      0.591800000000     0.522500000000     0.597300000000     0.0232144  
C        C      0.714700000000     0.433100000000     0.593200000000     0.0232144  
C        C      0.809400000000     0.450500000000     0.500900000000     0.0232144  
C        C      0.788400000000     0.578900000000     0.412300000000     0.0232144  
C        C      0.882200000000     0.584400000000     0.329100000000     0.0232144  
C        C      0.005100000000     0.349200000000     0.417200000000     0.0232144  
C        C      0.920500000000     0.336000000000     0.501900000000     0.0232144  
C        C      0.809000000000     0.318400000000     0.945400000000     0.0232144  
C        C      0.770600000000     0.186300000000     0.995700000000     0.0232144  
C        C      0.820300000000     0.082500000000     0.956800000000     0.0232144  
C        C      0.785000000000     0.959000000000     0.008900000000     0.0232144  
C        C      0.696500000000     0.947500000000     0.093700000000     0.0232144  
C        C      0.641500000000     0.056500000000     0.128300000000     0.0232144  
C        C      0.681000000000     0.175900000000     0.080000000000     0.0232144  
C        C      0.502600000000     0.129800000000     0.261600000000     0.0232144  
C        C      0.371300000000     0.257100000000     0.200600000000     0.0232144  
C        C      0.844800000000     0.835700000000     0.974400000000     0.0232144  
C        C      0.713700000000     0.405400000000     0.229200000000     0.0232144  
C        C      0.625100000000     0.387100000000     0.314300000000     0.0232144  
C        C      0.503800000000     0.498500000000     0.312000000000     0.0232144  
C        C      0.478400000000     0.626400000000     0.223300000000     0.0232144  
C        C      0.572300000000     0.636300000000     0.141300000000     0.0232144  
C        C      0.408200000000     0.477500000000     0.402700000000     0.0232144  
C        C      0.285300000000     0.566900000000     0.406800000000     0.0232144  
C        C      0.190600000000     0.549500000000     0.499100000000     0.0232144  
C        C      0.211600000000     0.421100000000     0.587700000000     0.0232144  
C        C      0.117800000000     0.415600000000     0.670900000000     0.0232144  
C        C      0.994900000000     0.650800000000     0.582800000000     0.0232144  
C        C      0.079500000000     0.664000000000     0.498100000000     0.0232144  
N        N      0.309600000000     0.473300000000     0.856200000000    -0.164447   
N        N      0.990400000000     0.469100000000     0.331300000000    -0.164447   
N        N      0.690400000000     0.526700000000     0.143800000000    -0.164447   
N        N      0.009600000000     0.530900000000     0.668700000000    -0.164447   
O        O      0.142100000000     0.654100000000     0.147500000000    -0.262081   
O        O      0.211100000000     0.608200000000     0.001600000000    -0.262081   
O        O      0.445300000000     0.968600000000     0.786800000000    -0.262081   
O        O      0.654300000000     0.707200000000     0.896200000000    -0.262081   
O        O      0.701500000000     0.682100000000     0.739000000000    -0.262081   
O        O      0.159300000000     0.279300000000     0.956400000000    -0.262081   
O        O      0.109300000000     0.143100000000     0.117500000000    -0.262081   
O        O      0.025700000000     0.418800000000     0.110300000000    -0.262081   
O        O      0.857900000000     0.345900000000     0.852500000000    -0.262081   
O        O      0.788900000000     0.391800000000     0.998400000000    -0.262081   
O        O      0.554700000000     0.031400000000     0.213200000000    -0.262081   
O        O      0.345700000000     0.292800000000     0.103800000000    -0.262081   
O        O      0.298500000000     0.317900000000     0.261000000000    -0.262081   
O        O      0.840700000000     0.720700000000     0.043600000000    -0.262081   
O        O      0.890700000000     0.856900000000     0.882500000000    -0.262081   
O        O      0.974300000000     0.581200000000     0.889700000000    -0.262081   


