data_PURQEZ_original

_audit_creation_method RASPA-1.0
_audit_creation_date 2022-1-30
_audit_author_name 'Felipe Lopes de Oliveira <felipe.lopes.oliveira@ibm.com>'

_cell_length_a    8.94
_cell_length_b    12.48
_cell_length_c    14.02
_cell_angle_alpha 90
_cell_angle_beta  90
_cell_angle_gamma 91.73
_cell_volume      1563.52

_symmetry_cell_setting          triclinic
_symmetry_space_group_name_Hall 'P 1'
_symmetry_space_group_name_H-M  'P 1'
_symmetry_Int_Tables_number     1

_symmetry_equiv_pos_as_xyz 'x,y,z'

loop_
_atom_site_label
_atom_site_type_symbol
_atom_site_fract_x
_atom_site_fract_y
_atom_site_fract_z
_atom_site_charge
Zn       Zn     0.750000000000     0.250000000000     0.326330000000     0.513023   
Zn       Zn     0.750000000000     0.250000000000     0.838740000000     0.513023   
Zn       Zn     0.250000000000     0.750000000000     0.673670000000     0.513023   
Zn       Zn     0.250000000000     0.750000000000     0.161260000000     0.513023   
H        H      0.441000000000     0.464600000000     0.152500000000     0.126841   
H        H      0.451100000000     0.355700000000     0.093900000000     0.126841   
H        H      0.622200000000     0.546800000000     0.055600000000     0.126841   
H        H      0.025800000000     0.497600000000     0.662200000000     0.126841   
H        H      0.064800000000     0.380700000000     0.624700000000     0.126841   
H        H      0.849100000000     0.508700000000     0.532600000000     0.126841   
H        H      0.059000000000     0.035400000000     0.152500000000     0.126841   
H        H      0.048900000000     0.144300000000     0.093900000000     0.126841   
H        H      0.877800000000     0.953200000000     0.055600000000     0.126841   
H        H      0.474200000000     0.002400000000     0.662200000000     0.126841   
H        H      0.435200000000     0.119300000000     0.624700000000     0.126841   
H        H      0.650900000000     0.991300000000     0.532600000000     0.126841   
H        H      0.559000000000     0.535400000000     0.847500000000     0.126841   
H        H      0.548900000000     0.644300000000     0.906100000000     0.126841   
H        H      0.377800000000     0.453200000000     0.944400000000     0.126841   
H        H      0.974200000000     0.502400000000     0.337800000000     0.126841   
H        H      0.935200000000     0.619300000000     0.375300000000     0.126841   
H        H      0.150900000000     0.491300000000     0.467400000000     0.126841   
H        H      0.941000000000     0.964600000000     0.847500000000     0.126841   
H        H      0.951100000000     0.855700000000     0.906100000000     0.126841   
H        H      0.122200000000     0.046800000000     0.944400000000     0.126841   
H        H      0.525800000000     0.997600000000     0.337800000000     0.126841   
H        H      0.564800000000     0.880700000000     0.375300000000     0.126841   
H        H      0.349100000000     0.008700000000     0.467400000000     0.126841   
C        C      0.624300000000     0.378300000000     0.188300000000     0.0779374  
C        C      0.510500000000     0.418500000000     0.117500000000     0.0779374  
C        C      0.568200000000     0.481000000000     0.031300000000     0.0779374  
C        C      0.681200000000     0.416800000000     0.973300000000     0.0779374  
C        C      0.853900000000     0.384900000000     0.687200000000     0.0779374  
C        C      0.984600000000     0.433600000000     0.628400000000     0.0779374  
C        C      0.941600000000     0.465800000000     0.527700000000     0.0779374  
C        C      0.904200000000     0.370500000000     0.467200000000     0.0779374  
C        C      0.875700000000     0.121700000000     0.188300000000     0.0779374  
C        C      0.989500000000     0.081500000000     0.117500000000     0.0779374  
C        C      0.931800000000     0.019000000000     0.031300000000     0.0779374  
C        C      0.818800000000     0.083200000000     0.973300000000     0.0779374  
C        C      0.646100000000     0.115100000000     0.687200000000     0.0779374  
C        C      0.515400000000     0.066400000000     0.628400000000     0.0779374  
C        C      0.558400000000     0.034200000000     0.527700000000     0.0779374  
C        C      0.595800000000     0.129500000000     0.467200000000     0.0779374  
C        C      0.375700000000     0.621700000000     0.811700000000     0.0779374  
C        C      0.489500000000     0.581500000000     0.882500000000     0.0779374  
C        C      0.431800000000     0.519000000000     0.968700000000     0.0779374  
C        C      0.318800000000     0.583200000000     0.026700000000     0.0779374  
C        C      0.146100000000     0.615100000000     0.312800000000     0.0779374  
C        C      0.015400000000     0.566400000000     0.371600000000     0.0779374  
C        C      0.058400000000     0.534200000000     0.472300000000     0.0779374  
C        C      0.095800000000     0.629500000000     0.532800000000     0.0779374  
C        C      0.124300000000     0.878300000000     0.811700000000     0.0779374  
C        C      0.010500000000     0.918500000000     0.882500000000     0.0779374  
C        C      0.068200000000     0.981000000000     0.968700000000     0.0779374  
C        C      0.181200000000     0.916800000000     0.026700000000     0.0779374  
C        C      0.353900000000     0.884900000000     0.312800000000     0.0779374  
C        C      0.484600000000     0.933600000000     0.371600000000     0.0779374  
C        C      0.441600000000     0.965800000000     0.472300000000     0.0779374  
C        C      0.404200000000     0.870500000000     0.532800000000     0.0779374  
O        O      0.584800000000     0.303100000000     0.245400000000    -0.237196   
O        O      0.814200000000     0.439400000000     0.973700000000    -0.237196   
O        O      0.622700000000     0.336600000000     0.922300000000    -0.237196   
O        O      0.899600000000     0.335300000000     0.769200000000    -0.237196   
O        O      0.726600000000     0.393200000000     0.668300000000    -0.237196   
O        O      0.784500000000     0.372000000000     0.414600000000    -0.237196   
O        O      0.988800000000     0.293400000000     0.462500000000    -0.237196   
O        O      0.755000000000     0.425200000000     0.193400000000    -0.237196   
O        O      0.915200000000     0.196900000000     0.245400000000    -0.237196   
O        O      0.685800000000     0.060600000000     0.973700000000    -0.237196   
O        O      0.877300000000     0.163400000000     0.922300000000    -0.237196   
O        O      0.600400000000     0.164700000000     0.769200000000    -0.237196   
O        O      0.773400000000     0.106800000000     0.668300000000    -0.237196   
O        O      0.715500000000     0.128000000000     0.414600000000    -0.237196   
O        O      0.511200000000     0.206600000000     0.462500000000    -0.237196   
O        O      0.745000000000     0.074800000000     0.193400000000    -0.237196   
O        O      0.415200000000     0.696900000000     0.754600000000    -0.237196   
O        O      0.185800000000     0.560600000000     0.026300000000    -0.237196   
O        O      0.377300000000     0.663400000000     0.077700000000    -0.237196   
O        O      0.100400000000     0.664700000000     0.230800000000    -0.237196   
O        O      0.273400000000     0.606800000000     0.331700000000    -0.237196   
O        O      0.215500000000     0.628000000000     0.585400000000    -0.237196   
O        O      0.011200000000     0.706600000000     0.537500000000    -0.237196   
O        O      0.245000000000     0.574800000000     0.806600000000    -0.237196   
O        O      0.084800000000     0.803100000000     0.754600000000    -0.237196   
O        O      0.314200000000     0.939400000000     0.026300000000    -0.237196   
O        O      0.122700000000     0.836600000000     0.077700000000    -0.237196   
O        O      0.399600000000     0.835300000000     0.230800000000    -0.237196   
O        O      0.226600000000     0.893200000000     0.331700000000    -0.237196   
O        O      0.284500000000     0.872000000000     0.585400000000    -0.237196   
O        O      0.488800000000     0.793400000000     0.537500000000    -0.237196   
O        O      0.255000000000     0.925200000000     0.806600000000    -0.237196   


