data_PURSOK_original

_audit_creation_method RASPA-1.0
_audit_creation_date 2022-1-30
_audit_author_name 'Felipe Lopes de Oliveira <felipe.lopes.oliveira@ibm.com>'

_cell_length_a    9.726
_cell_length_b    9.911
_cell_length_c    10.45
_cell_angle_alpha 99.72
_cell_angle_beta  111.11
_cell_angle_gamma 108.42
_cell_volume      844.895

_symmetry_cell_setting          triclinic
_symmetry_space_group_name_Hall 'P 1'
_symmetry_space_group_name_H-M  'P 1'
_symmetry_Int_Tables_number     1

_symmetry_equiv_pos_as_xyz 'x,y,z'

loop_
_atom_site_label
_atom_site_type_symbol
_atom_site_fract_x
_atom_site_fract_y
_atom_site_fract_z
_atom_site_charge
Zn       Zn     0.427200000000     0.602600000000     0.789300000000     0.450291   
Zn       Zn     0.572800000000     0.397400000000     0.210700000000     0.450291   
Zn       Zn     0.500000000000     0.500000000000     0.500000000000     0.450291   
H        H      0.167400000000     0.052000000000     0.388700000000     0.0599347  
H        H      0.027100000000     0.187800000000     0.683000000000     0.0599347  
H        H      0.847600000000     0.576700000000     0.096800000000     0.0599347  
H        H      0.930800000000     0.452600000000     0.756000000000     0.0599347  
H        H      0.354300000000     0.743100000000     0.401400000000     0.0599347  
H        H      0.669200000000     0.106400000000     0.744000000000     0.0599347  
H        H      0.832600000000     0.948000000000     0.611300000000     0.0599347  
H        H      0.972900000000     0.812200000000     0.317000000000     0.0599347  
H        H      0.152400000000     0.423300000000     0.903200000000     0.0599347  
H        H      0.069200000000     0.547400000000     0.244000000000     0.0599347  
H        H      0.645700000000     0.256900000000     0.598600000000     0.0599347  
H        H      0.330800000000     0.893600000000     0.256000000000     0.0599347  
C        C      0.246300000000     0.301500000000     0.591200000000     0.053513   
C        C      0.119000000000     0.145200000000     0.545100000000     0.053513   
C        C      0.100400000000     0.031500000000     0.434200000000     0.053513   
C        C      0.017100000000     0.112500000000     0.609300000000     0.053513   
C        C      0.712800000000     0.527500000000     0.810600000000     0.053513   
C        C      0.862100000000     0.514300000000     0.909500000000     0.053513   
C        C      0.908200000000     0.545000000000     0.057400000000     0.053513   
C        C      0.957900000000     0.470900000000     0.854100000000     0.053513   
C        C      0.527500000000     0.811500000000     0.681300000000     0.053513   
C        C      0.516200000000     0.910000000000     0.587500000000     0.053513   
C        C      0.413500000000     0.846500000000     0.441400000000     0.053513   
C        C      0.601100000000     0.063200000000     0.645300000000     0.053513   
C        C      0.753700000000     0.698500000000     0.408800000000     0.053513   
C        C      0.881000000000     0.854800000000     0.454900000000     0.053513   
C        C      0.899600000000     0.968500000000     0.565800000000     0.053513   
C        C      0.982900000000     0.887500000000     0.390700000000     0.053513   
C        C      0.287200000000     0.472500000000     0.189400000000     0.053513   
C        C      0.137900000000     0.485700000000     0.090500000000     0.053513   
C        C      0.091800000000     0.455000000000     0.942600000000     0.053513   
C        C      0.042100000000     0.529100000000     0.145900000000     0.053513   
C        C      0.472500000000     0.188500000000     0.318700000000     0.053513   
C        C      0.483800000000     0.090000000000     0.412500000000     0.053513   
C        C      0.586500000000     0.153500000000     0.558600000000     0.053513   
C        C      0.398900000000     0.936800000000     0.354700000000     0.053513   
O        O      0.331700000000     0.326700000000     0.525900000000    -0.279534   
O        O      0.258300000000     0.396400000000     0.697300000000    -0.279534   
O        O      0.691800000000     0.524200000000     0.685400000000    -0.279534   
O        O      0.617900000000     0.541000000000     0.864900000000    -0.279534   
O        O      0.455600000000     0.669000000000     0.621500000000    -0.279534   
O        O      0.597000000000     0.866500000000     0.815800000000    -0.279534   
O        O      0.668300000000     0.673300000000     0.474100000000    -0.279534   
O        O      0.741700000000     0.603600000000     0.302700000000    -0.279534   
O        O      0.308200000000     0.475800000000     0.314600000000    -0.279534   
O        O      0.382100000000     0.459000000000     0.135100000000    -0.279534   
O        O      0.544400000000     0.331000000000     0.378500000000    -0.279534   
O        O      0.403000000000     0.133500000000     0.184200000000    -0.279534   


