data_PUWCUF_original

_audit_creation_method RASPA-1.0
_audit_creation_date 2022-1-28
_audit_author_name 'Felipe Lopes de Oliveira <felipe.lopes.oliveira@ibm.com>'

_cell_length_a    15.745
_cell_length_b    16.907
_cell_length_c    18.167
_cell_angle_alpha 90
_cell_angle_beta  90
_cell_angle_gamma 90
_cell_volume      4836.07

_symmetry_cell_setting          triclinic
_symmetry_space_group_name_Hall 'P 1'
_symmetry_space_group_name_H-M  'P 1'
_symmetry_Int_Tables_number     1

_symmetry_equiv_pos_as_xyz 'x,y,z'

loop_
_atom_site_label
_atom_site_type_symbol
_atom_site_fract_x
_atom_site_fract_y
_atom_site_fract_z
_atom_site_charge
Zn       Zn     0.434100000000     0.823100000000     0.644400000000     0.45611    
Zn       Zn     0.479300000000     0.642100000000     0.589200000000     0.45611    
Zn       Zn     0.065900000000     0.176900000000     0.144400000000     0.45611    
Zn       Zn     0.020700000000     0.357900000000     0.089200000000     0.45611    
Zn       Zn     0.565900000000     0.323100000000     0.855600000000     0.45611    
Zn       Zn     0.520700000000     0.142100000000     0.910800000000     0.45611    
Zn       Zn     0.934100000000     0.676900000000     0.355600000000     0.45611    
Zn       Zn     0.979300000000     0.857900000000     0.410800000000     0.45611    
Zn       Zn     0.565900000000     0.176900000000     0.355600000000     0.45611    
Zn       Zn     0.520700000000     0.357900000000     0.410800000000     0.45611    
Zn       Zn     0.934100000000     0.823100000000     0.855600000000     0.45611    
Zn       Zn     0.979300000000     0.642100000000     0.910800000000     0.45611    
Zn       Zn     0.434100000000     0.676900000000     0.144400000000     0.45611    
Zn       Zn     0.479300000000     0.857900000000     0.089200000000     0.45611    
Zn       Zn     0.065900000000     0.323100000000     0.644400000000     0.45611    
Zn       Zn     0.020700000000     0.142100000000     0.589200000000     0.45611    
H        H      0.469400000000     0.795200000000     0.368500000000     0.101956   
H        H      0.533400000000     0.721400000000     0.365400000000     0.101956   
H        H      0.595000000000     0.931800000000     0.261700000000     0.101956   
H        H      0.507000000000     0.923400000000     0.305400000000     0.101956   
H        H      0.732700000000     0.937100000000     0.333300000000     0.101956   
H        H      0.732100000000     0.932200000000     0.421200000000     0.101956   
H        H      0.672900000000     0.727700000000     0.434800000000     0.101956   
H        H      0.696000000000     0.803400000000     0.483900000000     0.101956   
H        H      0.591900000000     0.920900000000     0.490500000000     0.101956   
H        H      0.505000000000     0.916800000000     0.444500000000     0.101956   
H        H      0.697300000000     0.816700000000     0.258800000000     0.101956   
H        H      0.673900000000     0.735800000000     0.300000000000     0.101956   
H        H      0.030600000000     0.204800000000     0.868500000000     0.101956   
H        H      0.966600000000     0.278600000000     0.865400000000     0.101956   
H        H      0.905000000000     0.068200000000     0.761700000000     0.101956   
H        H      0.993000000000     0.076600000000     0.805400000000     0.101956   
H        H      0.767300000000     0.062900000000     0.833300000000     0.101956   
H        H      0.767900000000     0.067800000000     0.921200000000     0.101956   
H        H      0.827100000000     0.272300000000     0.934800000000     0.101956   
H        H      0.804000000000     0.196600000000     0.983900000000     0.101956   
H        H      0.908100000000     0.079100000000     0.990500000000     0.101956   
H        H      0.995000000000     0.083200000000     0.944500000000     0.101956   
H        H      0.802700000000     0.183300000000     0.758800000000     0.101956   
H        H      0.826100000000     0.264200000000     0.800000000000     0.101956   
H        H      0.530600000000     0.295200000000     0.131500000000     0.101956   
H        H      0.466600000000     0.221400000000     0.134600000000     0.101956   
H        H      0.405000000000     0.431800000000     0.238300000000     0.101956   
H        H      0.493000000000     0.423400000000     0.194600000000     0.101956   
H        H      0.267300000000     0.437100000000     0.166700000000     0.101956   
H        H      0.267900000000     0.432200000000     0.078800000000     0.101956   
H        H      0.327100000000     0.227700000000     0.065200000000     0.101956   
H        H      0.304000000000     0.303400000000     0.016100000000     0.101956   
H        H      0.408100000000     0.420900000000     0.009500000000     0.101956   
H        H      0.495000000000     0.416800000000     0.055500000000     0.101956   
H        H      0.302700000000     0.316700000000     0.241200000000     0.101956   
H        H      0.326100000000     0.235800000000     0.200000000000     0.101956   
H        H      0.969400000000     0.704800000000     0.631500000000     0.101956   
H        H      0.033400000000     0.778600000000     0.634600000000     0.101956   
H        H      0.095000000000     0.568200000000     0.738300000000     0.101956   
H        H      0.007000000000     0.576600000000     0.694600000000     0.101956   
H        H      0.232700000000     0.562900000000     0.666700000000     0.101956   
H        H      0.232100000000     0.567800000000     0.578800000000     0.101956   
H        H      0.172900000000     0.772300000000     0.565200000000     0.101956   
H        H      0.196000000000     0.696600000000     0.516100000000     0.101956   
H        H      0.091900000000     0.579100000000     0.509500000000     0.101956   
H        H      0.005000000000     0.583200000000     0.555500000000     0.101956   
H        H      0.197300000000     0.683300000000     0.741200000000     0.101956   
H        H      0.173900000000     0.764200000000     0.700000000000     0.101956   
H        H      0.530600000000     0.204800000000     0.631500000000     0.101956   
H        H      0.466600000000     0.278600000000     0.634600000000     0.101956   
H        H      0.405000000000     0.068200000000     0.738300000000     0.101956   
H        H      0.493000000000     0.076600000000     0.694600000000     0.101956   
H        H      0.267300000000     0.062900000000     0.666700000000     0.101956   
H        H      0.267900000000     0.067800000000     0.578800000000     0.101956   
H        H      0.327100000000     0.272300000000     0.565200000000     0.101956   
H        H      0.304000000000     0.196600000000     0.516100000000     0.101956   
H        H      0.408100000000     0.079100000000     0.509500000000     0.101956   
H        H      0.495000000000     0.083200000000     0.555500000000     0.101956   
H        H      0.302700000000     0.183300000000     0.741200000000     0.101956   
H        H      0.326100000000     0.264200000000     0.700000000000     0.101956   
H        H      0.969400000000     0.795200000000     0.131500000000     0.101956   
H        H      0.033400000000     0.721400000000     0.134600000000     0.101956   
H        H      0.095000000000     0.931800000000     0.238300000000     0.101956   
H        H      0.007000000000     0.923400000000     0.194600000000     0.101956   
H        H      0.232700000000     0.937100000000     0.166700000000     0.101956   
H        H      0.232100000000     0.932200000000     0.078800000000     0.101956   
H        H      0.172900000000     0.727700000000     0.065200000000     0.101956   
H        H      0.196000000000     0.803400000000     0.016100000000     0.101956   
H        H      0.091900000000     0.920900000000     0.009500000000     0.101956   
H        H      0.005000000000     0.916800000000     0.055500000000     0.101956   
H        H      0.197300000000     0.816700000000     0.241200000000     0.101956   
H        H      0.173900000000     0.735800000000     0.200000000000     0.101956   
H        H      0.469400000000     0.704800000000     0.868500000000     0.101956   
H        H      0.533400000000     0.778600000000     0.865400000000     0.101956   
H        H      0.595000000000     0.568200000000     0.761700000000     0.101956   
H        H      0.507000000000     0.576600000000     0.805400000000     0.101956   
H        H      0.732700000000     0.562900000000     0.833300000000     0.101956   
H        H      0.732100000000     0.567800000000     0.921200000000     0.101956   
H        H      0.672900000000     0.772300000000     0.934800000000     0.101956   
H        H      0.696000000000     0.696600000000     0.983900000000     0.101956   
H        H      0.591900000000     0.579100000000     0.990500000000     0.101956   
H        H      0.505000000000     0.583200000000     0.944500000000     0.101956   
H        H      0.697300000000     0.683300000000     0.758800000000     0.101956   
H        H      0.673900000000     0.764200000000     0.800000000000     0.101956   
H        H      0.030600000000     0.295200000000     0.368500000000     0.101956   
H        H      0.966600000000     0.221400000000     0.365400000000     0.101956   
H        H      0.905000000000     0.431800000000     0.261700000000     0.101956   
H        H      0.993000000000     0.423400000000     0.305400000000     0.101956   
H        H      0.767300000000     0.437100000000     0.333300000000     0.101956   
H        H      0.767900000000     0.432200000000     0.421200000000     0.101956   
H        H      0.827100000000     0.227700000000     0.434800000000     0.101956   
H        H      0.804000000000     0.303400000000     0.483900000000     0.101956   
H        H      0.908100000000     0.420900000000     0.490500000000     0.101956   
H        H      0.995000000000     0.416800000000     0.444500000000     0.101956   
H        H      0.802700000000     0.316700000000     0.258800000000     0.101956   
H        H      0.826100000000     0.235800000000     0.300000000000     0.101956   
C        C      0.530300000000     0.770100000000     0.505900000000     0.0142969  
C        C      0.573600000000     0.809200000000     0.440300000000     0.0142969  
C        C      0.530000000000     0.779800000000     0.368400000000     0.0142969  
C        C      0.575100000000     0.816900000000     0.301500000000     0.0142969  
C        C      0.567600000000     0.907900000000     0.305400000000     0.0142969  
C        C      0.611400000000     0.939000000000     0.376800000000     0.0142969  
C        C      0.703700000000     0.912900000000     0.376000000000     0.0142969  
C        C      0.712800000000     0.823600000000     0.371800000000     0.0142969  
C        C      0.667900000000     0.786000000000     0.437900000000     0.0142969  
C        C      0.565700000000     0.901400000000     0.444400000000     0.0142969  
C        C      0.668800000000     0.794100000000     0.302600000000     0.0142969  
C        C      0.532800000000     0.789900000000     0.230600000000     0.0142969  
C        C      0.606400000000     0.028900000000     0.381800000000     0.0142969  
C        C      0.806100000000     0.799300000000     0.374100000000     0.0142969  
C        C      0.969700000000     0.229900000000     0.005900000000     0.0142969  
C        C      0.926400000000     0.190800000000     0.940300000000     0.0142969  
C        C      0.970000000000     0.220200000000     0.868400000000     0.0142969  
C        C      0.924900000000     0.183100000000     0.801500000000     0.0142969  
C        C      0.932400000000     0.092100000000     0.805400000000     0.0142969  
C        C      0.888600000000     0.061000000000     0.876800000000     0.0142969  
C        C      0.796300000000     0.087100000000     0.876000000000     0.0142969  
C        C      0.787200000000     0.176400000000     0.871800000000     0.0142969  
C        C      0.832100000000     0.214000000000     0.937900000000     0.0142969  
C        C      0.934300000000     0.098600000000     0.944400000000     0.0142969  
C        C      0.831200000000     0.205900000000     0.802600000000     0.0142969  
C        C      0.967200000000     0.210100000000     0.730600000000     0.0142969  
C        C      0.893600000000     0.971100000000     0.881800000000     0.0142969  
C        C      0.693900000000     0.200700000000     0.874100000000     0.0142969  
C        C      0.469700000000     0.270100000000     0.994100000000     0.0142969  
C        C      0.426400000000     0.309200000000     0.059700000000     0.0142969  
C        C      0.470000000000     0.279800000000     0.131600000000     0.0142969  
C        C      0.424900000000     0.316900000000     0.198500000000     0.0142969  
C        C      0.432400000000     0.407900000000     0.194600000000     0.0142969  
C        C      0.388600000000     0.439000000000     0.123200000000     0.0142969  
C        C      0.296300000000     0.412900000000     0.124000000000     0.0142969  
C        C      0.287200000000     0.323600000000     0.128200000000     0.0142969  
C        C      0.332100000000     0.286000000000     0.062100000000     0.0142969  
C        C      0.434300000000     0.401400000000     0.055600000000     0.0142969  
C        C      0.331200000000     0.294100000000     0.197400000000     0.0142969  
C        C      0.467200000000     0.289900000000     0.269400000000     0.0142969  
C        C      0.393600000000     0.528900000000     0.118200000000     0.0142969  
C        C      0.193900000000     0.299300000000     0.125900000000     0.0142969  
C        C      0.030300000000     0.729900000000     0.494100000000     0.0142969  
C        C      0.073600000000     0.690800000000     0.559700000000     0.0142969  
C        C      0.030000000000     0.720200000000     0.631600000000     0.0142969  
C        C      0.075100000000     0.683100000000     0.698500000000     0.0142969  
C        C      0.067600000000     0.592100000000     0.694600000000     0.0142969  
C        C      0.111400000000     0.561000000000     0.623200000000     0.0142969  
C        C      0.203700000000     0.587100000000     0.624000000000     0.0142969  
C        C      0.212800000000     0.676400000000     0.628200000000     0.0142969  
C        C      0.167900000000     0.714000000000     0.562100000000     0.0142969  
C        C      0.065700000000     0.598600000000     0.555600000000     0.0142969  
C        C      0.168800000000     0.705900000000     0.697400000000     0.0142969  
C        C      0.032800000000     0.710100000000     0.769400000000     0.0142969  
C        C      0.106400000000     0.471100000000     0.618200000000     0.0142969  
C        C      0.306100000000     0.700700000000     0.625900000000     0.0142969  
C        C      0.469700000000     0.229900000000     0.494100000000     0.0142969  
C        C      0.426400000000     0.190800000000     0.559700000000     0.0142969  
C        C      0.470000000000     0.220200000000     0.631600000000     0.0142969  
C        C      0.424900000000     0.183100000000     0.698500000000     0.0142969  
C        C      0.432400000000     0.092100000000     0.694600000000     0.0142969  
C        C      0.388600000000     0.061000000000     0.623200000000     0.0142969  
C        C      0.296300000000     0.087100000000     0.624000000000     0.0142969  
C        C      0.287200000000     0.176400000000     0.628200000000     0.0142969  
C        C      0.332100000000     0.214000000000     0.562100000000     0.0142969  
C        C      0.434300000000     0.098600000000     0.555600000000     0.0142969  
C        C      0.331200000000     0.205900000000     0.697400000000     0.0142969  
C        C      0.467200000000     0.210100000000     0.769400000000     0.0142969  
C        C      0.393600000000     0.971100000000     0.618200000000     0.0142969  
C        C      0.193900000000     0.200700000000     0.625900000000     0.0142969  
C        C      0.030300000000     0.770100000000     0.994100000000     0.0142969  
C        C      0.073600000000     0.809200000000     0.059700000000     0.0142969  
C        C      0.030000000000     0.779800000000     0.131600000000     0.0142969  
C        C      0.075100000000     0.816900000000     0.198500000000     0.0142969  
C        C      0.067600000000     0.907900000000     0.194600000000     0.0142969  
C        C      0.111400000000     0.939000000000     0.123200000000     0.0142969  
C        C      0.203700000000     0.912900000000     0.124000000000     0.0142969  
C        C      0.212800000000     0.823600000000     0.128200000000     0.0142969  
C        C      0.167900000000     0.786000000000     0.062100000000     0.0142969  
C        C      0.065700000000     0.901400000000     0.055600000000     0.0142969  
C        C      0.168800000000     0.794100000000     0.197400000000     0.0142969  
C        C      0.032800000000     0.789900000000     0.269400000000     0.0142969  
C        C      0.106400000000     0.028900000000     0.118200000000     0.0142969  
C        C      0.306100000000     0.799300000000     0.125900000000     0.0142969  
C        C      0.530300000000     0.729900000000     0.005900000000     0.0142969  
C        C      0.573600000000     0.690800000000     0.940300000000     0.0142969  
C        C      0.530000000000     0.720200000000     0.868400000000     0.0142969  
C        C      0.575100000000     0.683100000000     0.801500000000     0.0142969  
C        C      0.567600000000     0.592100000000     0.805400000000     0.0142969  
C        C      0.611400000000     0.561000000000     0.876800000000     0.0142969  
C        C      0.703700000000     0.587100000000     0.876000000000     0.0142969  
C        C      0.712800000000     0.676400000000     0.871800000000     0.0142969  
C        C      0.667900000000     0.714000000000     0.937900000000     0.0142969  
C        C      0.565700000000     0.598600000000     0.944400000000     0.0142969  
C        C      0.668800000000     0.705900000000     0.802600000000     0.0142969  
C        C      0.532800000000     0.710100000000     0.730600000000     0.0142969  
C        C      0.606400000000     0.471100000000     0.881800000000     0.0142969  
C        C      0.806100000000     0.700700000000     0.874100000000     0.0142969  
C        C      0.969700000000     0.270100000000     0.505900000000     0.0142969  
C        C      0.926400000000     0.309200000000     0.440300000000     0.0142969  
C        C      0.970000000000     0.279800000000     0.368400000000     0.0142969  
C        C      0.924900000000     0.316900000000     0.301500000000     0.0142969  
C        C      0.932400000000     0.407900000000     0.305400000000     0.0142969  
C        C      0.888600000000     0.439000000000     0.376800000000     0.0142969  
C        C      0.796300000000     0.412900000000     0.376000000000     0.0142969  
C        C      0.787200000000     0.323600000000     0.371800000000     0.0142969  
C        C      0.832100000000     0.286000000000     0.437900000000     0.0142969  
C        C      0.934300000000     0.401400000000     0.444400000000     0.0142969  
C        C      0.831200000000     0.294100000000     0.302600000000     0.0142969  
C        C      0.967200000000     0.289900000000     0.230600000000     0.0142969  
C        C      0.893600000000     0.528900000000     0.381800000000     0.0142969  
C        C      0.693900000000     0.299300000000     0.374100000000     0.0142969  
O        O      0.508100000000     0.813800000000     0.557900000000    -0.291982   
O        O      0.520800000000     0.697600000000     0.504000000000    -0.291982   
O        O      0.489800000000     0.728300000000     0.230500000000    -0.291982   
O        O      0.549700000000     0.830400000000     0.173900000000    -0.291982   
O        O      0.566600000000     0.066000000000     0.330100000000    -0.291982   
O        O      0.636800000000     0.064300000000     0.433800000000    -0.291982   
O        O      0.859300000000     0.850200000000     0.392000000000    -0.291982   
O        O      0.822700000000     0.729500000000     0.358200000000    -0.291982   
O        O      0.991900000000     0.186200000000     0.057900000000    -0.291982   
O        O      0.979200000000     0.302400000000     0.004000000000    -0.291982   
O        O      0.010200000000     0.271700000000     0.730500000000    -0.291982   
O        O      0.950300000000     0.169600000000     0.673900000000    -0.291982   
O        O      0.933400000000     0.934000000000     0.830100000000    -0.291982   
O        O      0.863200000000     0.935700000000     0.933800000000    -0.291982   
O        O      0.640700000000     0.149800000000     0.892000000000    -0.291982   
O        O      0.677300000000     0.270500000000     0.858200000000    -0.291982   
O        O      0.491900000000     0.313800000000     0.942100000000    -0.291982   
O        O      0.479200000000     0.197600000000     0.996000000000    -0.291982   
O        O      0.510200000000     0.228300000000     0.269500000000    -0.291982   
O        O      0.450300000000     0.330400000000     0.326100000000    -0.291982   
O        O      0.433400000000     0.566000000000     0.169900000000    -0.291982   
O        O      0.363200000000     0.564300000000     0.066200000000    -0.291982   
O        O      0.140700000000     0.350200000000     0.108000000000    -0.291982   
O        O      0.177300000000     0.229500000000     0.141800000000    -0.291982   
O        O      0.008100000000     0.686200000000     0.442100000000    -0.291982   
O        O      0.020800000000     0.802400000000     0.496000000000    -0.291982   
O        O      0.989800000000     0.771700000000     0.769500000000    -0.291982   
O        O      0.049700000000     0.669600000000     0.826100000000    -0.291982   
O        O      0.066600000000     0.434000000000     0.669900000000    -0.291982   
O        O      0.136800000000     0.435700000000     0.566200000000    -0.291982   
O        O      0.359300000000     0.649800000000     0.608000000000    -0.291982   
O        O      0.322700000000     0.770500000000     0.641800000000    -0.291982   
O        O      0.491900000000     0.186200000000     0.442100000000    -0.291982   
O        O      0.479200000000     0.302400000000     0.496000000000    -0.291982   
O        O      0.510200000000     0.271700000000     0.769500000000    -0.291982   
O        O      0.450300000000     0.169600000000     0.826100000000    -0.291982   
O        O      0.433400000000     0.934000000000     0.669900000000    -0.291982   
O        O      0.363200000000     0.935700000000     0.566200000000    -0.291982   
O        O      0.140700000000     0.149800000000     0.608000000000    -0.291982   
O        O      0.177300000000     0.270500000000     0.641800000000    -0.291982   
O        O      0.008100000000     0.813800000000     0.942100000000    -0.291982   
O        O      0.020800000000     0.697600000000     0.996000000000    -0.291982   
O        O      0.989800000000     0.728300000000     0.269500000000    -0.291982   
O        O      0.049700000000     0.830400000000     0.326100000000    -0.291982   
O        O      0.066600000000     0.066000000000     0.169900000000    -0.291982   
O        O      0.136800000000     0.064300000000     0.066200000000    -0.291982   
O        O      0.359300000000     0.850200000000     0.108000000000    -0.291982   
O        O      0.322700000000     0.729500000000     0.141800000000    -0.291982   
O        O      0.508100000000     0.686200000000     0.057900000000    -0.291982   
O        O      0.520800000000     0.802400000000     0.004000000000    -0.291982   
O        O      0.489800000000     0.771700000000     0.730500000000    -0.291982   
O        O      0.549700000000     0.669600000000     0.673900000000    -0.291982   
O        O      0.566600000000     0.434000000000     0.830100000000    -0.291982   
O        O      0.636800000000     0.435700000000     0.933800000000    -0.291982   
O        O      0.859300000000     0.649800000000     0.892000000000    -0.291982   
O        O      0.822700000000     0.770500000000     0.858200000000    -0.291982   
O        O      0.991900000000     0.313800000000     0.557900000000    -0.291982   
O        O      0.979200000000     0.197600000000     0.504000000000    -0.291982   
O        O      0.010200000000     0.228300000000     0.230500000000    -0.291982   
O        O      0.950300000000     0.330400000000     0.173900000000    -0.291982   
O        O      0.933400000000     0.566000000000     0.330100000000    -0.291982   
O        O      0.863200000000     0.564300000000     0.433800000000    -0.291982   
O        O      0.640700000000     0.350200000000     0.392000000000    -0.291982   
O        O      0.677300000000     0.229500000000     0.358200000000    -0.291982   


