data_QADBII_original

_audit_creation_method RASPA-1.0
_audit_creation_date 2022-1-28
_audit_author_name 'Felipe Lopes de Oliveira <felipe.lopes.oliveira@ibm.com>'

_cell_length_a    10.0725
_cell_length_b    10.2297
_cell_length_c    23.5
_cell_angle_alpha 90
_cell_angle_beta  90
_cell_angle_gamma 90
_cell_volume      2421.41

_symmetry_cell_setting          triclinic
_symmetry_space_group_name_Hall 'P 1'
_symmetry_space_group_name_H-M  'P 1'
_symmetry_Int_Tables_number     1

_symmetry_equiv_pos_as_xyz 'x,y,z'

loop_
_atom_site_label
_atom_site_type_symbol
_atom_site_fract_x
_atom_site_fract_y
_atom_site_fract_z
_atom_site_charge
Sn       Sn     0.326010000000     0.800320000000     0.025130000000     1.55341    
Sn       Sn     0.547260000000     0.678070000000     0.235390000000     1.55341    
Sn       Sn     0.452740000000     0.178070000000     0.264610000000     1.55341    
Sn       Sn     0.673990000000     0.300320000000     0.474870000000     1.55341    
Sn       Sn     0.173990000000     0.199680000000     0.525130000000     1.55341    
Sn       Sn     0.952740000000     0.321930000000     0.735390000000     1.55341    
Sn       Sn     0.047260000000     0.821930000000     0.764610000000     1.55341    
Sn       Sn     0.826010000000     0.699680000000     0.974870000000     1.55341    
H        H      0.612800000000     0.092800000000     0.125400000000     0.262427   
H        H      0.788100000000     0.886800000000     0.094300000000     0.262427   
H        H      0.759800000000     0.010100000000     0.056700000000     0.262427   
H        H      0.872800000000     0.932100000000     0.198800000000     0.262427   
H        H      0.048600000000     0.040700000000     0.240100000000     0.262427   
H        H      0.099400000000     0.255900000000     0.213100000000     0.262427   
H        H      0.934400000000     0.378300000000     0.168900000000     0.262427   
H        H      0.745300000000     0.273500000000     0.135300000000     0.262427   
H        H      0.387200000000     0.592800000000     0.374600000000     0.262427   
H        H      0.211900000000     0.386800000000     0.405700000000     0.262427   
H        H      0.240200000000     0.510100000000     0.443300000000     0.262427   
H        H      0.127200000000     0.432100000000     0.301200000000     0.262427   
H        H      0.951400000000     0.540700000000     0.259900000000     0.262427   
H        H      0.900600000000     0.755900000000     0.286900000000     0.262427   
H        H      0.065600000000     0.878300000000     0.331100000000     0.262427   
H        H      0.254700000000     0.773500000000     0.364700000000     0.262427   
H        H      0.887200000000     0.907200000000     0.625400000000     0.262427   
H        H      0.711900000000     0.113200000000     0.594300000000     0.262427   
H        H      0.740200000000     0.989900000000     0.556700000000     0.262427   
H        H      0.627200000000     0.067900000000     0.698800000000     0.262427   
H        H      0.451400000000     0.959300000000     0.740100000000     0.262427   
H        H      0.400600000000     0.744100000000     0.713100000000     0.262427   
H        H      0.565600000000     0.621700000000     0.668900000000     0.262427   
H        H      0.754700000000     0.726500000000     0.635300000000     0.262427   
H        H      0.112800000000     0.407200000000     0.874600000000     0.262427   
H        H      0.288100000000     0.613200000000     0.905700000000     0.262427   
H        H      0.259800000000     0.489900000000     0.943300000000     0.262427   
H        H      0.372800000000     0.567900000000     0.801200000000     0.262427   
H        H      0.548600000000     0.459300000000     0.759900000000     0.262427   
H        H      0.599400000000     0.244100000000     0.786900000000     0.262427   
H        H      0.434400000000     0.121700000000     0.831100000000     0.262427   
H        H      0.245300000000     0.226500000000     0.864700000000     0.262427   
H        H      0.108800000000     0.917100000000     0.058400000000     0.262427   
H        H      0.165100000000     0.839500000000     0.110700000000     0.262427   
H        H      0.226400000000     0.975100000000     0.094100000000     0.262427   
H        H      0.276700000000     0.868500000000     0.924200000000     0.262427   
H        H      0.379500000000     0.967500000000     0.949700000000     0.262427   
H        H      0.427200000000     0.830600000000     0.927900000000     0.262427   
H        H      0.487300000000     0.612900000000     0.061300000000     0.262427   
H        H      0.343300000000     0.575100000000     0.080700000000     0.262427   
H        H      0.388700000000     0.549000000000     0.017900000000     0.262427   
H        H      0.318700000000     0.626500000000     0.191500000000     0.262427   
H        H      0.298700000000     0.737700000000     0.236600000000     0.262427   
H        H      0.354100000000     0.771400000000     0.176000000000     0.262427   
H        H      0.541700000000     0.768700000000     0.340300000000     0.262427   
H        H      0.680100000000     0.701700000000     0.331400000000     0.262427   
H        H      0.655100000000     0.843000000000     0.308000000000     0.262427   
H        H      0.691700000000     0.562300000000     0.161800000000     0.262427   
H        H      0.752400000000     0.535100000000     0.222100000000     0.262427   
H        H      0.628600000000     0.455400000000     0.201200000000     0.262427   
H        H      0.681300000000     0.126500000000     0.308500000000     0.262427   
H        H      0.701300000000     0.237700000000     0.263400000000     0.262427   
H        H      0.645900000000     0.271400000000     0.324000000000     0.262427   
H        H      0.458300000000     0.268700000000     0.159700000000     0.262427   
H        H      0.319900000000     0.201700000000     0.168600000000     0.262427   
H        H      0.344900000000     0.343000000000     0.192000000000     0.262427   
H        H      0.308300000000     0.062300000000     0.338200000000     0.262427   
H        H      0.247600000000     0.035100000000     0.277900000000     0.262427   
H        H      0.371400000000     0.955400000000     0.298800000000     0.262427   
H        H      0.891200000000     0.417100000000     0.441600000000     0.262427   
H        H      0.834900000000     0.339500000000     0.389300000000     0.262427   
H        H      0.773600000000     0.475100000000     0.405900000000     0.262427   
H        H      0.723300000000     0.368500000000     0.575800000000     0.262427   
H        H      0.620500000000     0.467500000000     0.550300000000     0.262427   
H        H      0.572800000000     0.330600000000     0.572100000000     0.262427   
H        H      0.512700000000     0.112900000000     0.438700000000     0.262427   
H        H      0.656700000000     0.075100000000     0.419300000000     0.262427   
H        H      0.611300000000     0.049000000000     0.482100000000     0.262427   
H        H      0.391200000000     0.082900000000     0.558400000000     0.262427   
H        H      0.334900000000     0.160500000000     0.610700000000     0.262427   
H        H      0.273600000000     0.024900000000     0.594100000000     0.262427   
H        H      0.223300000000     0.131500000000     0.424200000000     0.262427   
H        H      0.120500000000     0.032500000000     0.449700000000     0.262427   
H        H      0.072800000000     0.169400000000     0.427900000000     0.262427   
H        H      0.012700000000     0.387100000000     0.561300000000     0.262427   
H        H      0.156700000000     0.424900000000     0.580700000000     0.262427   
H        H      0.111300000000     0.451000000000     0.517900000000     0.262427   
H        H      0.181300000000     0.373500000000     0.691500000000     0.262427   
H        H      0.201300000000     0.262300000000     0.736600000000     0.262427   
H        H      0.145900000000     0.228600000000     0.676000000000     0.262427   
H        H      0.958300000000     0.231300000000     0.840300000000     0.262427   
H        H      0.819900000000     0.298300000000     0.831400000000     0.262427   
H        H      0.844900000000     0.157000000000     0.808000000000     0.262427   
H        H      0.808300000000     0.437700000000     0.661800000000     0.262427   
H        H      0.747600000000     0.464900000000     0.722100000000     0.262427   
H        H      0.871400000000     0.544600000000     0.701200000000     0.262427   
H        H      0.818700000000     0.873500000000     0.808500000000     0.262427   
H        H      0.798700000000     0.762300000000     0.763400000000     0.262427   
H        H      0.854100000000     0.728600000000     0.824000000000     0.262427   
H        H      0.041700000000     0.731300000000     0.659700000000     0.262427   
H        H      0.180100000000     0.798300000000     0.668600000000     0.262427   
H        H      0.155100000000     0.657000000000     0.692000000000     0.262427   
H        H      0.191700000000     0.937700000000     0.838200000000     0.262427   
H        H      0.252400000000     0.964900000000     0.777900000000     0.262427   
H        H      0.128600000000     0.044600000000     0.798800000000     0.262427   
H        H      0.608800000000     0.582900000000     0.941600000000     0.262427   
H        H      0.665100000000     0.660500000000     0.889300000000     0.262427   
H        H      0.726400000000     0.524900000000     0.905900000000     0.262427   
H        H      0.776700000000     0.631500000000     0.075800000000     0.262427   
H        H      0.879500000000     0.532500000000     0.050300000000     0.262427   
H        H      0.927200000000     0.669400000000     0.072100000000     0.262427   
H        H      0.987300000000     0.887100000000     0.938700000000     0.262427   
H        H      0.843300000000     0.924900000000     0.919300000000     0.262427   
H        H      0.888700000000     0.951000000000     0.982100000000     0.262427   
C        C      0.616000000000     0.945000000000     0.180200000000    -0.499908   
C        C      0.677000000000     0.026000000000     0.137000000000    -0.499908   
C        C      0.720000000000     0.949000000000     0.083600000000    -0.499908   
C        C      0.610000000000     0.879000000000     0.054900000000    -0.499908   
C        C      0.799000000000     0.092700000000     0.159400000000    -0.499908   
C        C      0.886000000000     0.021000000000     0.192400000000    -0.499908   
C        C      0.992000000000     0.085000000000     0.215400000000    -0.499908   
C        C      0.019000000000     0.218000000000     0.202600000000    -0.499908   
C        C      0.924000000000     0.289000000000     0.174200000000    -0.499908   
C        C      0.812000000000     0.225600000000     0.153400000000    -0.499908   
C        C      0.384000000000     0.445000000000     0.319800000000    -0.499908   
C        C      0.323000000000     0.526000000000     0.363000000000    -0.499908   
C        C      0.280000000000     0.449000000000     0.416400000000    -0.499908   
C        C      0.390000000000     0.379000000000     0.445100000000    -0.499908   
C        C      0.201000000000     0.592700000000     0.340600000000    -0.499908   
C        C      0.114000000000     0.521000000000     0.307600000000    -0.499908   
C        C      0.008000000000     0.585000000000     0.284600000000    -0.499908   
C        C      0.981000000000     0.718000000000     0.297400000000    -0.499908   
C        C      0.076000000000     0.789000000000     0.325800000000    -0.499908   
C        C      0.188000000000     0.725600000000     0.346600000000    -0.499908   
C        C      0.884000000000     0.055000000000     0.680200000000    -0.499908   
C        C      0.823000000000     0.974000000000     0.637000000000    -0.499908   
C        C      0.780000000000     0.051000000000     0.583600000000    -0.499908   
C        C      0.890000000000     0.121000000000     0.554900000000    -0.499908   
C        C      0.701000000000     0.907300000000     0.659400000000    -0.499908   
C        C      0.614000000000     0.979000000000     0.692400000000    -0.499908   
C        C      0.508000000000     0.915000000000     0.715400000000    -0.499908   
C        C      0.481000000000     0.782000000000     0.702600000000    -0.499908   
C        C      0.576000000000     0.711000000000     0.674200000000    -0.499908   
C        C      0.688000000000     0.774400000000     0.653400000000    -0.499908   
C        C      0.116000000000     0.555000000000     0.819800000000    -0.499908   
C        C      0.177000000000     0.474000000000     0.863000000000    -0.499908   
C        C      0.220000000000     0.551000000000     0.916400000000    -0.499908   
C        C      0.110000000000     0.621000000000     0.945100000000    -0.499908   
C        C      0.299000000000     0.407300000000     0.840600000000    -0.499908   
C        C      0.386000000000     0.479000000000     0.807600000000    -0.499908   
C        C      0.492000000000     0.415000000000     0.784600000000    -0.499908   
C        C      0.519000000000     0.282000000000     0.797400000000    -0.499908   
C        C      0.424000000000     0.211000000000     0.825800000000    -0.499908   
C        C      0.312000000000     0.274400000000     0.846600000000    -0.499908   
C        C      0.188000000000     0.896000000000     0.079600000000    -0.499908   
C        C      0.356000000000     0.877000000000     0.946300000000    -0.499908   
C        C      0.396000000000     0.607000000000     0.049700000000    -0.499908   
C        C      0.353500000000     0.707000000000     0.205900000000    -0.499908   
C        C      0.616000000000     0.759000000000     0.314800000000    -0.499908   
C        C      0.672000000000     0.539000000000     0.200500000000    -0.499908   
C        C      0.646500000000     0.207000000000     0.294100000000    -0.499908   
C        C      0.384000000000     0.259000000000     0.185200000000    -0.499908   
C        C      0.328000000000     0.039000000000     0.299500000000    -0.499908   
C        C      0.812000000000     0.396000000000     0.420400000000    -0.499908   
C        C      0.644000000000     0.377000000000     0.553700000000    -0.499908   
C        C      0.604000000000     0.107000000000     0.450300000000    -0.499908   
C        C      0.312000000000     0.104000000000     0.579600000000    -0.499908   
C        C      0.144000000000     0.123000000000     0.446300000000    -0.499908   
C        C      0.104000000000     0.393000000000     0.549700000000    -0.499908   
C        C      0.146500000000     0.293000000000     0.705900000000    -0.499908   
C        C      0.884000000000     0.241000000000     0.814800000000    -0.499908   
C        C      0.828000000000     0.461000000000     0.700500000000    -0.499908   
C        C      0.853500000000     0.793000000000     0.794100000000    -0.499908   
C        C      0.116000000000     0.741000000000     0.685200000000    -0.499908   
C        C      0.172000000000     0.961000000000     0.799500000000    -0.499908   
C        C      0.688000000000     0.604000000000     0.920400000000    -0.499908   
C        C      0.856000000000     0.623000000000     0.053700000000    -0.499908   
C        C      0.896000000000     0.893000000000     0.950300000000    -0.499908   
O        O      0.533200000000     0.990000000000     0.215500000000    -0.482851   
O        O      0.644500000000     0.819800000000     0.180000000000    -0.482851   
O        O      0.491100000000     0.905000000000     0.069300000000    -0.482851   
O        O      0.635200000000     0.804200000000     0.011600000000    -0.482851   
O        O      0.466800000000     0.490000000000     0.284500000000    -0.482851   
O        O      0.355500000000     0.319800000000     0.320000000000    -0.482851   
O        O      0.508900000000     0.405000000000     0.430700000000    -0.482851   
O        O      0.364800000000     0.304200000000     0.488400000000    -0.482851   
O        O      0.966800000000     0.010000000000     0.715500000000    -0.482851   
O        O      0.855500000000     0.180200000000     0.680000000000    -0.482851   
O        O      0.008900000000     0.095000000000     0.569300000000    -0.482851   
O        O      0.864800000000     0.195800000000     0.511600000000    -0.482851   
O        O      0.033200000000     0.510000000000     0.784500000000    -0.482851   
O        O      0.144500000000     0.680200000000     0.820000000000    -0.482851   
O        O      0.991100000000     0.595000000000     0.930700000000    -0.482851   
O        O      0.135200000000     0.695800000000     0.988400000000    -0.482851   


