data_QIFLOI_original

_audit_creation_method RASPA-1.0
_audit_creation_date 2022-1-29
_audit_author_name 'Felipe Lopes de Oliveira <felipe.lopes.oliveira@ibm.com>'

_cell_length_a    13.2828
_cell_length_b    13.2828
_cell_length_c    26.6491
_cell_angle_alpha 90
_cell_angle_beta  90
_cell_angle_gamma 90
_cell_volume      4701.77

_symmetry_cell_setting          triclinic
_symmetry_space_group_name_Hall 'P 1'
_symmetry_space_group_name_H-M  'P 1'
_symmetry_Int_Tables_number     1

_symmetry_equiv_pos_as_xyz 'x,y,z'

loop_
_atom_site_label
_atom_site_type_symbol
_atom_site_fract_x
_atom_site_fract_y
_atom_site_fract_z
_atom_site_charge
Zn       Zn     0.328960000000     0.777220000000     0.304855000000     0.372256   
Zn       Zn     0.671040000000     0.222780000000     0.304855000000     0.372256   
Zn       Zn     0.222780000000     0.328960000000     0.304855000000     0.372256   
Zn       Zn     0.777220000000     0.671040000000     0.304855000000     0.372256   
Zn       Zn     0.828960000000     0.277220000000     0.804855000000     0.372256   
Zn       Zn     0.171040000000     0.722780000000     0.804855000000     0.372256   
Zn       Zn     0.722780000000     0.828960000000     0.804855000000     0.372256   
Zn       Zn     0.277220000000     0.171040000000     0.804855000000     0.372256   
Zn       Zn     0.671040000000     0.222780000000     0.695145000000     0.372256   
Zn       Zn     0.328960000000     0.777220000000     0.695145000000     0.372256   
Zn       Zn     0.777220000000     0.671040000000     0.695145000000     0.372256   
Zn       Zn     0.222780000000     0.328960000000     0.695145000000     0.372256   
Zn       Zn     0.171040000000     0.722780000000     0.195145000000     0.372256   
Zn       Zn     0.828960000000     0.277220000000     0.195145000000     0.372256   
Zn       Zn     0.277220000000     0.171040000000     0.195145000000     0.372256   
Zn       Zn     0.722780000000     0.828960000000     0.195145000000     0.372256   
H        H      0.225900000000     0.989800000000     0.424800000000     0.142015   
H        H      0.774100000000     0.010200000000     0.424800000000     0.142015   
H        H      0.010200000000     0.225900000000     0.424800000000     0.142015   
H        H      0.989800000000     0.774100000000     0.424800000000     0.142015   
H        H      0.725900000000     0.489800000000     0.924800000000     0.142015   
H        H      0.274100000000     0.510200000000     0.924800000000     0.142015   
H        H      0.510200000000     0.725900000000     0.924800000000     0.142015   
H        H      0.489800000000     0.274100000000     0.924800000000     0.142015   
H        H      0.774100000000     0.010200000000     0.575200000000     0.142015   
H        H      0.225900000000     0.989800000000     0.575200000000     0.142015   
H        H      0.989800000000     0.774100000000     0.575200000000     0.142015   
H        H      0.010200000000     0.225900000000     0.575200000000     0.142015   
H        H      0.274100000000     0.510200000000     0.075200000000     0.142015   
H        H      0.725900000000     0.489800000000     0.075200000000     0.142015   
H        H      0.489800000000     0.274100000000     0.075200000000     0.142015   
H        H      0.510200000000     0.725900000000     0.075200000000     0.142015   
H        H      0.164300000000     0.056300000000     0.500000000000     0.142015   
H        H      0.835700000000     0.943700000000     0.500000000000     0.142015   
H        H      0.943700000000     0.164300000000     0.500000000000     0.142015   
H        H      0.056300000000     0.835700000000     0.500000000000     0.142015   
H        H      0.664300000000     0.556300000000     0.000000000000     0.142015   
H        H      0.335700000000     0.443700000000     0.000000000000     0.142015   
H        H      0.443700000000     0.664300000000     0.000000000000     0.142015   
H        H      0.556300000000     0.335700000000     0.000000000000     0.142015   
H        H      0.338600000000     0.755600000000     0.500000000000     0.142015   
H        H      0.661400000000     0.244400000000     0.500000000000     0.142015   
H        H      0.244400000000     0.338600000000     0.500000000000     0.142015   
H        H      0.755600000000     0.661400000000     0.500000000000     0.142015   
H        H      0.838600000000     0.255600000000     0.000000000000     0.142015   
H        H      0.161400000000     0.744400000000     0.000000000000     0.142015   
H        H      0.744400000000     0.838600000000     0.000000000000     0.142015   
H        H      0.255600000000     0.161400000000     0.000000000000     0.142015   
H        H      0.506400000000     0.830000000000     0.175000000000     0.142015   
H        H      0.493600000000     0.170000000000     0.175000000000     0.142015   
H        H      0.170000000000     0.506400000000     0.175000000000     0.142015   
H        H      0.830000000000     0.493600000000     0.175000000000     0.142015   
H        H      0.006400000000     0.330000000000     0.675000000000     0.142015   
H        H      0.993600000000     0.670000000000     0.675000000000     0.142015   
H        H      0.670000000000     0.006400000000     0.675000000000     0.142015   
H        H      0.330000000000     0.993600000000     0.675000000000     0.142015   
H        H      0.493600000000     0.170000000000     0.825000000000     0.142015   
H        H      0.506400000000     0.830000000000     0.825000000000     0.142015   
H        H      0.830000000000     0.493600000000     0.825000000000     0.142015   
H        H      0.170000000000     0.506400000000     0.825000000000     0.142015   
H        H      0.993600000000     0.670000000000     0.325000000000     0.142015   
H        H      0.006400000000     0.330000000000     0.325000000000     0.142015   
H        H      0.330000000000     0.993600000000     0.325000000000     0.142015   
H        H      0.670000000000     0.006400000000     0.325000000000     0.142015   
H        H      0.410000000000     0.826800000000     0.203500000000     0.142015   
H        H      0.590000000000     0.173200000000     0.203500000000     0.142015   
H        H      0.173200000000     0.410000000000     0.203500000000     0.142015   
H        H      0.826800000000     0.590000000000     0.203500000000     0.142015   
H        H      0.910000000000     0.326800000000     0.703500000000     0.142015   
H        H      0.090000000000     0.673200000000     0.703500000000     0.142015   
H        H      0.673200000000     0.910000000000     0.703500000000     0.142015   
H        H      0.326800000000     0.090000000000     0.703500000000     0.142015   
H        H      0.590000000000     0.173200000000     0.796500000000     0.142015   
H        H      0.410000000000     0.826800000000     0.796500000000     0.142015   
H        H      0.826800000000     0.590000000000     0.796500000000     0.142015   
H        H      0.173200000000     0.410000000000     0.796500000000     0.142015   
H        H      0.090000000000     0.673200000000     0.296500000000     0.142015   
H        H      0.910000000000     0.326800000000     0.296500000000     0.142015   
H        H      0.326800000000     0.090000000000     0.296500000000     0.142015   
H        H      0.673200000000     0.910000000000     0.296500000000     0.142015   
H        H      0.594400000000     0.688100000000     0.382800000000     0.142015   
H        H      0.405600000000     0.311900000000     0.382800000000     0.142015   
H        H      0.311900000000     0.594400000000     0.382800000000     0.142015   
H        H      0.688100000000     0.405600000000     0.382800000000     0.142015   
H        H      0.094400000000     0.188100000000     0.882800000000     0.142015   
H        H      0.905600000000     0.811900000000     0.882800000000     0.142015   
H        H      0.811900000000     0.094400000000     0.882800000000     0.142015   
H        H      0.188100000000     0.905600000000     0.882800000000     0.142015   
H        H      0.405600000000     0.311900000000     0.617200000000     0.142015   
H        H      0.594400000000     0.688100000000     0.617200000000     0.142015   
H        H      0.688100000000     0.405600000000     0.617200000000     0.142015   
H        H      0.311900000000     0.594400000000     0.617200000000     0.142015   
H        H      0.905600000000     0.811900000000     0.117200000000     0.142015   
H        H      0.094400000000     0.188100000000     0.117200000000     0.142015   
H        H      0.188100000000     0.905600000000     0.117200000000     0.142015   
H        H      0.811900000000     0.094400000000     0.117200000000     0.142015   
H        H      0.484000000000     0.705400000000     0.377900000000     0.142015   
H        H      0.516000000000     0.294600000000     0.377900000000     0.142015   
H        H      0.294600000000     0.484000000000     0.377900000000     0.142015   
H        H      0.705400000000     0.516000000000     0.377900000000     0.142015   
H        H      0.984000000000     0.205400000000     0.877900000000     0.142015   
H        H      0.016000000000     0.794600000000     0.877900000000     0.142015   
H        H      0.794600000000     0.984000000000     0.877900000000     0.142015   
H        H      0.205400000000     0.016000000000     0.877900000000     0.142015   
H        H      0.516000000000     0.294600000000     0.622100000000     0.142015   
H        H      0.484000000000     0.705400000000     0.622100000000     0.142015   
H        H      0.705400000000     0.516000000000     0.622100000000     0.142015   
H        H      0.294600000000     0.484000000000     0.622100000000     0.142015   
H        H      0.016000000000     0.794600000000     0.122100000000     0.142015   
H        H      0.984000000000     0.205400000000     0.122100000000     0.142015   
H        H      0.205400000000     0.016000000000     0.122100000000     0.142015   
H        H      0.794600000000     0.984000000000     0.122100000000     0.142015   
C        C      0.312200000000     0.810700000000     0.406950000000     0.113007   
C        C      0.687800000000     0.189300000000     0.406950000000     0.113007   
C        C      0.189300000000     0.312200000000     0.406950000000     0.113007   
C        C      0.810700000000     0.687800000000     0.406950000000     0.113007   
C        C      0.812200000000     0.310700000000     0.906950000000     0.113007   
C        C      0.187800000000     0.689300000000     0.906950000000     0.113007   
C        C      0.689300000000     0.812200000000     0.906950000000     0.113007   
C        C      0.310700000000     0.187800000000     0.906950000000     0.113007   
C        C      0.687800000000     0.189300000000     0.593050000000     0.113007   
C        C      0.312200000000     0.810700000000     0.593050000000     0.113007   
C        C      0.810700000000     0.687800000000     0.593050000000     0.113007   
C        C      0.189300000000     0.312200000000     0.593050000000     0.113007   
C        C      0.187800000000     0.689300000000     0.093050000000     0.113007   
C        C      0.812200000000     0.310700000000     0.093050000000     0.113007   
C        C      0.310700000000     0.187800000000     0.093050000000     0.113007   
C        C      0.689300000000     0.812200000000     0.093050000000     0.113007   
C        C      0.281400000000     0.862500000000     0.454720000000     0.113007   
C        C      0.718600000000     0.137500000000     0.454720000000     0.113007   
C        C      0.137500000000     0.281400000000     0.454720000000     0.113007   
C        C      0.862500000000     0.718600000000     0.454720000000     0.113007   
C        C      0.781400000000     0.362500000000     0.954720000000     0.113007   
C        C      0.218600000000     0.637500000000     0.954720000000     0.113007   
C        C      0.637500000000     0.781400000000     0.954720000000     0.113007   
C        C      0.362500000000     0.218600000000     0.954720000000     0.113007   
C        C      0.718600000000     0.137500000000     0.545280000000     0.113007   
C        C      0.281400000000     0.862500000000     0.545280000000     0.113007   
C        C      0.862500000000     0.718600000000     0.545280000000     0.113007   
C        C      0.137500000000     0.281400000000     0.545280000000     0.113007   
C        C      0.218600000000     0.637500000000     0.045280000000     0.113007   
C        C      0.781400000000     0.362500000000     0.045280000000     0.113007   
C        C      0.362500000000     0.218600000000     0.045280000000     0.113007   
C        C      0.637500000000     0.781400000000     0.045280000000     0.113007   
C        C      0.236000000000     0.955800000000     0.454800000000     0.113007   
C        C      0.764000000000     0.044200000000     0.454800000000     0.113007   
C        C      0.044200000000     0.236000000000     0.454800000000     0.113007   
C        C      0.955800000000     0.764000000000     0.454800000000     0.113007   
C        C      0.736000000000     0.455800000000     0.954800000000     0.113007   
C        C      0.264000000000     0.544200000000     0.954800000000     0.113007   
C        C      0.544200000000     0.736000000000     0.954800000000     0.113007   
C        C      0.455800000000     0.264000000000     0.954800000000     0.113007   
C        C      0.764000000000     0.044200000000     0.545200000000     0.113007   
C        C      0.236000000000     0.955800000000     0.545200000000     0.113007   
C        C      0.955800000000     0.764000000000     0.545200000000     0.113007   
C        C      0.044200000000     0.236000000000     0.545200000000     0.113007   
C        C      0.264000000000     0.544200000000     0.045200000000     0.113007   
C        C      0.736000000000     0.455800000000     0.045200000000     0.113007   
C        C      0.455800000000     0.264000000000     0.045200000000     0.113007   
C        C      0.544200000000     0.736000000000     0.045200000000     0.113007   
C        C      0.204900000000     0.999300000000     0.500000000000     0.113007   
C        C      0.795100000000     0.000700000000     0.500000000000     0.113007   
C        C      0.000700000000     0.204900000000     0.500000000000     0.113007   
C        C      0.999300000000     0.795100000000     0.500000000000     0.113007   
C        C      0.704900000000     0.499300000000     0.000000000000     0.113007   
C        C      0.295100000000     0.500700000000     0.000000000000     0.113007   
C        C      0.500700000000     0.704900000000     0.000000000000     0.113007   
C        C      0.499300000000     0.295100000000     0.000000000000     0.113007   
C        C      0.305600000000     0.817300000000     0.500000000000     0.113007   
C        C      0.694400000000     0.182700000000     0.500000000000     0.113007   
C        C      0.182700000000     0.305600000000     0.500000000000     0.113007   
C        C      0.817300000000     0.694400000000     0.500000000000     0.113007   
C        C      0.805600000000     0.317300000000     0.000000000000     0.113007   
C        C      0.194400000000     0.682700000000     0.000000000000     0.113007   
C        C      0.682700000000     0.805600000000     0.000000000000     0.113007   
C        C      0.317300000000     0.194400000000     0.000000000000     0.113007   
C        C      0.523700000000     0.786700000000     0.243120000000     0.113007   
C        C      0.476300000000     0.213300000000     0.243120000000     0.113007   
C        C      0.213300000000     0.523700000000     0.243120000000     0.113007   
C        C      0.786700000000     0.476300000000     0.243120000000     0.113007   
C        C      0.023700000000     0.286700000000     0.743120000000     0.113007   
C        C      0.976300000000     0.713300000000     0.743120000000     0.113007   
C        C      0.713300000000     0.023700000000     0.743120000000     0.113007   
C        C      0.286700000000     0.976300000000     0.743120000000     0.113007   
C        C      0.476300000000     0.213300000000     0.756880000000     0.113007   
C        C      0.523700000000     0.786700000000     0.756880000000     0.113007   
C        C      0.786700000000     0.476300000000     0.756880000000     0.113007   
C        C      0.213300000000     0.523700000000     0.756880000000     0.113007   
C        C      0.976300000000     0.713300000000     0.256880000000     0.113007   
C        C      0.023700000000     0.286700000000     0.256880000000     0.113007   
C        C      0.286700000000     0.976300000000     0.256880000000     0.113007   
C        C      0.713300000000     0.023700000000     0.256880000000     0.113007   
C        C      0.556200000000     0.733600000000     0.317230000000     0.113007   
C        C      0.443800000000     0.266400000000     0.317230000000     0.113007   
C        C      0.266400000000     0.556200000000     0.317230000000     0.113007   
C        C      0.733600000000     0.443800000000     0.317230000000     0.113007   
C        C      0.056200000000     0.233600000000     0.817230000000     0.113007   
C        C      0.943800000000     0.766400000000     0.817230000000     0.113007   
C        C      0.766400000000     0.056200000000     0.817230000000     0.113007   
C        C      0.233600000000     0.943800000000     0.817230000000     0.113007   
C        C      0.443800000000     0.266400000000     0.682770000000     0.113007   
C        C      0.556200000000     0.733600000000     0.682770000000     0.113007   
C        C      0.733600000000     0.443800000000     0.682770000000     0.113007   
C        C      0.266400000000     0.556200000000     0.682770000000     0.113007   
C        C      0.943800000000     0.766400000000     0.182770000000     0.113007   
C        C      0.056200000000     0.233600000000     0.182770000000     0.113007   
C        C      0.233600000000     0.943800000000     0.182770000000     0.113007   
C        C      0.766400000000     0.056200000000     0.182770000000     0.113007   
N        N      0.621700000000     0.771600000000     0.244770000000    -0.256861   
N        N      0.378300000000     0.228400000000     0.244770000000    -0.256861   
N        N      0.228400000000     0.621700000000     0.244770000000    -0.256861   
N        N      0.771600000000     0.378300000000     0.244770000000    -0.256861   
N        N      0.121700000000     0.271600000000     0.744770000000    -0.256861   
N        N      0.878300000000     0.728400000000     0.744770000000    -0.256861   
N        N      0.728400000000     0.121700000000     0.744770000000    -0.256861   
N        N      0.271600000000     0.878300000000     0.744770000000    -0.256861   
N        N      0.378300000000     0.228400000000     0.755230000000    -0.256861   
N        N      0.621700000000     0.771600000000     0.755230000000    -0.256861   
N        N      0.771600000000     0.378300000000     0.755230000000    -0.256861   
N        N      0.228400000000     0.621700000000     0.755230000000    -0.256861   
N        N      0.878300000000     0.728400000000     0.255230000000    -0.256861   
N        N      0.121700000000     0.271600000000     0.255230000000    -0.256861   
N        N      0.271600000000     0.878300000000     0.255230000000    -0.256861   
N        N      0.728400000000     0.121700000000     0.255230000000    -0.256861   
N        N      0.643000000000     0.736900000000     0.293690000000    -0.256861   
N        N      0.357000000000     0.263100000000     0.293690000000    -0.256861   
N        N      0.263100000000     0.643000000000     0.293690000000    -0.256861   
N        N      0.736900000000     0.357000000000     0.293690000000    -0.256861   
N        N      0.143000000000     0.236900000000     0.793690000000    -0.256861   
N        N      0.857000000000     0.763100000000     0.793690000000    -0.256861   
N        N      0.763100000000     0.143000000000     0.793690000000    -0.256861   
N        N      0.236900000000     0.857000000000     0.793690000000    -0.256861   
N        N      0.357000000000     0.263100000000     0.706310000000    -0.256861   
N        N      0.643000000000     0.736900000000     0.706310000000    -0.256861   
N        N      0.736900000000     0.357000000000     0.706310000000    -0.256861   
N        N      0.263100000000     0.643000000000     0.706310000000    -0.256861   
N        N      0.857000000000     0.763100000000     0.206310000000    -0.256861   
N        N      0.143000000000     0.236900000000     0.206310000000    -0.256861   
N        N      0.236900000000     0.857000000000     0.206310000000    -0.256861   
N        N      0.763100000000     0.143000000000     0.206310000000    -0.256861   
N        N      0.478100000000     0.766200000000     0.288040000000    -0.256861   
N        N      0.521900000000     0.233800000000     0.288040000000    -0.256861   
N        N      0.233800000000     0.478100000000     0.288040000000    -0.256861   
N        N      0.766200000000     0.521900000000     0.288040000000    -0.256861   
N        N      0.978100000000     0.266200000000     0.788040000000    -0.256861   
N        N      0.021900000000     0.733800000000     0.788040000000    -0.256861   
N        N      0.733800000000     0.978100000000     0.788040000000    -0.256861   
N        N      0.266200000000     0.021900000000     0.788040000000    -0.256861   
N        N      0.521900000000     0.233800000000     0.711960000000    -0.256861   
N        N      0.478100000000     0.766200000000     0.711960000000    -0.256861   
N        N      0.766200000000     0.521900000000     0.711960000000    -0.256861   
N        N      0.233800000000     0.478100000000     0.711960000000    -0.256861   
N        N      0.021900000000     0.733800000000     0.211960000000    -0.256861   
N        N      0.978100000000     0.266200000000     0.211960000000    -0.256861   
N        N      0.266200000000     0.021900000000     0.211960000000    -0.256861   
N        N      0.733800000000     0.978100000000     0.211960000000    -0.256861   
N        N      0.474200000000     0.818300000000     0.202380000000    -0.256861   
N        N      0.525800000000     0.181700000000     0.202380000000    -0.256861   
N        N      0.181700000000     0.474200000000     0.202380000000    -0.256861   
N        N      0.818300000000     0.525800000000     0.202380000000    -0.256861   
N        N      0.974200000000     0.318300000000     0.702380000000    -0.256861   
N        N      0.025800000000     0.681700000000     0.702380000000    -0.256861   
N        N      0.681700000000     0.974200000000     0.702380000000    -0.256861   
N        N      0.318300000000     0.025800000000     0.702380000000    -0.256861   
N        N      0.525800000000     0.181700000000     0.797620000000    -0.256861   
N        N      0.474200000000     0.818300000000     0.797620000000    -0.256861   
N        N      0.818300000000     0.525800000000     0.797620000000    -0.256861   
N        N      0.181700000000     0.474200000000     0.797620000000    -0.256861   
N        N      0.025800000000     0.681700000000     0.297620000000    -0.256861   
N        N      0.974200000000     0.318300000000     0.297620000000    -0.256861   
N        N      0.318300000000     0.025800000000     0.297620000000    -0.256861   
N        N      0.681700000000     0.974200000000     0.297620000000    -0.256861   
N        N      0.543300000000     0.705700000000     0.365000000000    -0.256861   
N        N      0.456700000000     0.294300000000     0.365000000000    -0.256861   
N        N      0.294300000000     0.543300000000     0.365000000000    -0.256861   
N        N      0.705700000000     0.456700000000     0.365000000000    -0.256861   
N        N      0.043300000000     0.205700000000     0.865000000000    -0.256861   
N        N      0.956700000000     0.794300000000     0.865000000000    -0.256861   
N        N      0.794300000000     0.043300000000     0.865000000000    -0.256861   
N        N      0.205700000000     0.956700000000     0.865000000000    -0.256861   
N        N      0.456700000000     0.294300000000     0.635000000000    -0.256861   
N        N      0.543300000000     0.705700000000     0.635000000000    -0.256861   
N        N      0.705700000000     0.456700000000     0.635000000000    -0.256861   
N        N      0.294300000000     0.543300000000     0.635000000000    -0.256861   
N        N      0.956700000000     0.794300000000     0.135000000000    -0.256861   
N        N      0.043300000000     0.205700000000     0.135000000000    -0.256861   
N        N      0.205700000000     0.956700000000     0.135000000000    -0.256861   
N        N      0.794300000000     0.043300000000     0.135000000000    -0.256861   
O        O      0.296000000000     0.856300000000     0.365460000000    -0.309041   
O        O      0.704000000000     0.143700000000     0.365460000000    -0.309041   
O        O      0.143700000000     0.296000000000     0.365460000000    -0.309041   
O        O      0.856300000000     0.704000000000     0.365460000000    -0.309041   
O        O      0.796000000000     0.356300000000     0.865460000000    -0.309041   
O        O      0.204000000000     0.643700000000     0.865460000000    -0.309041   
O        O      0.643700000000     0.796000000000     0.865460000000    -0.309041   
O        O      0.356300000000     0.204000000000     0.865460000000    -0.309041   
O        O      0.704000000000     0.143700000000     0.634540000000    -0.309041   
O        O      0.296000000000     0.856300000000     0.634540000000    -0.309041   
O        O      0.856300000000     0.704000000000     0.634540000000    -0.309041   
O        O      0.143700000000     0.296000000000     0.634540000000    -0.309041   
O        O      0.204000000000     0.643700000000     0.134540000000    -0.309041   
O        O      0.796000000000     0.356300000000     0.134540000000    -0.309041   
O        O      0.356300000000     0.204000000000     0.134540000000    -0.309041   
O        O      0.643700000000     0.796000000000     0.134540000000    -0.309041   
O        O      0.349800000000     0.726200000000     0.409180000000    -0.309041   
O        O      0.650200000000     0.273800000000     0.409180000000    -0.309041   
O        O      0.273800000000     0.349800000000     0.409180000000    -0.309041   
O        O      0.726200000000     0.650200000000     0.409180000000    -0.309041   
O        O      0.849800000000     0.226200000000     0.909180000000    -0.309041   
O        O      0.150200000000     0.773800000000     0.909180000000    -0.309041   
O        O      0.773800000000     0.849800000000     0.909180000000    -0.309041   
O        O      0.226200000000     0.150200000000     0.909180000000    -0.309041   
O        O      0.650200000000     0.273800000000     0.590820000000    -0.309041   
O        O      0.349800000000     0.726200000000     0.590820000000    -0.309041   
O        O      0.726200000000     0.650200000000     0.590820000000    -0.309041   
O        O      0.273800000000     0.349800000000     0.590820000000    -0.309041   
O        O      0.150200000000     0.773800000000     0.090820000000    -0.309041   
O        O      0.849800000000     0.226200000000     0.090820000000    -0.309041   
O        O      0.226200000000     0.150200000000     0.090820000000    -0.309041   
O        O      0.773800000000     0.849800000000     0.090820000000    -0.309041   


