data_QOKCID_original

_audit_creation_method RASPA-1.0
_audit_creation_date 2022-1-28
_audit_author_name 'Felipe Lopes de Oliveira <felipe.lopes.oliveira@ibm.com>'

_cell_length_a    7.6238
_cell_length_b    12.3416
_cell_length_c    12.3416
_cell_angle_alpha 83.6611
_cell_angle_beta  85.84
_cell_angle_gamma 85.84
_cell_volume      1148.64

_symmetry_cell_setting          triclinic
_symmetry_space_group_name_Hall 'P 1'
_symmetry_space_group_name_H-M  'P 1'
_symmetry_Int_Tables_number     1

_symmetry_equiv_pos_as_xyz 'x,y,z'

loop_
_atom_site_label
_atom_site_type_symbol
_atom_site_fract_x
_atom_site_fract_y
_atom_site_fract_z
_atom_site_charge
Zn       Zn     0.436820000000     0.297220000000     0.234780000000     0.495603   
Zn       Zn     0.063180000000     0.765220000000     0.702780000000     0.495603   
Zn       Zn     0.563180000000     0.702780000000     0.765220000000     0.495603   
Zn       Zn     0.936820000000     0.234780000000     0.297220000000     0.495603   
H        H      0.710800000000     0.457100000000     0.947100000000     0.0869488  
H        H      0.196100000000     0.434900000000     0.796500000000     0.0869488  
H        H      0.066500000000     0.216800000000     0.053800000000     0.0869488  
H        H      0.484000000000     0.364200000000     0.859600000000     0.0869488  
H        H      0.413800000000     0.299000000000     0.770600000000     0.0869488  
H        H      0.512700000000     0.120900000000     0.995500000000     0.0869488  
H        H      0.789200000000     0.052900000000     0.542900000000     0.0869488  
H        H      0.303900000000     0.203500000000     0.565100000000     0.0869488  
H        H      0.433500000000     0.946200000000     0.783200000000     0.0869488  
H        H      0.016000000000     0.140400000000     0.635800000000     0.0869488  
H        H      0.086200000000     0.229400000000     0.701000000000     0.0869488  
H        H      0.987300000000     0.004500000000     0.879100000000     0.0869488  
H        H      0.289200000000     0.542900000000     0.052900000000     0.0869488  
H        H      0.803900000000     0.565100000000     0.203500000000     0.0869488  
H        H      0.933500000000     0.783200000000     0.946200000000     0.0869488  
H        H      0.516000000000     0.635800000000     0.140400000000     0.0869488  
H        H      0.586200000000     0.701000000000     0.229400000000     0.0869488  
H        H      0.487300000000     0.879100000000     0.004500000000     0.0869488  
H        H      0.210800000000     0.947100000000     0.457100000000     0.0869488  
H        H      0.696100000000     0.796500000000     0.434900000000     0.0869488  
H        H      0.566500000000     0.053800000000     0.216800000000     0.0869488  
H        H      0.984000000000     0.859600000000     0.364200000000     0.0869488  
H        H      0.913800000000     0.770600000000     0.299000000000     0.0869488  
H        H      0.012700000000     0.995500000000     0.120900000000     0.0869488  
H        H      0.750000000000     0.991200000000     0.008800000000     0.0869488  
H        H      0.750000000000     0.273300000000     0.726700000000     0.0869488  
H        H      0.250000000000     0.008800000000     0.991200000000     0.0869488  
H        H      0.250000000000     0.726700000000     0.273300000000     0.0869488  
C        C      0.870800000000     0.332300000000     0.015700000000     0.0252878  
C        C      0.823200000000     0.422700000000     0.941900000000     0.0252878  
C        C      0.946100000000     0.459000000000     0.862000000000     0.0252878  
C        C      0.114500000000     0.408300000000     0.850900000000     0.0252878  
C        C      0.158100000000     0.317500000000     0.922700000000     0.0252878  
C        C      0.036800000000     0.278000000000     0.006000000000     0.0252878  
C        C      0.743500000000     0.293700000000     0.106900000000     0.0252878  
C        C      0.451000000000     0.293100000000     0.844700000000     0.0252878  
C        C      0.605500000000     0.208800000000     0.858600000000     0.0252878  
C        C      0.607400000000     0.125300000000     0.943700000000     0.0252878  
C        C      0.896300000000     0.558800000000     0.785000000000     0.0252878  
C        C      0.629200000000     0.984300000000     0.667700000000     0.0252878  
C        C      0.676800000000     0.058100000000     0.577300000000     0.0252878  
C        C      0.553900000000     0.138000000000     0.541000000000     0.0252878  
C        C      0.385500000000     0.149100000000     0.591700000000     0.0252878  
C        C      0.341900000000     0.077300000000     0.682500000000     0.0252878  
C        C      0.463200000000     0.994000000000     0.722000000000     0.0252878  
C        C      0.756500000000     0.893100000000     0.706300000000     0.0252878  
C        C      0.049000000000     0.155300000000     0.706900000000     0.0252878  
C        C      0.894500000000     0.141400000000     0.791200000000     0.0252878  
C        C      0.892600000000     0.056300000000     0.874700000000     0.0252878  
C        C      0.603700000000     0.215000000000     0.441200000000     0.0252878  
C        C      0.129200000000     0.667700000000     0.984300000000     0.0252878  
C        C      0.176800000000     0.577300000000     0.058100000000     0.0252878  
C        C      0.053900000000     0.541000000000     0.138000000000     0.0252878  
C        C      0.885500000000     0.591700000000     0.149100000000     0.0252878  
C        C      0.841900000000     0.682500000000     0.077300000000     0.0252878  
C        C      0.963200000000     0.722000000000     0.994000000000     0.0252878  
C        C      0.256500000000     0.706300000000     0.893100000000     0.0252878  
C        C      0.549000000000     0.706900000000     0.155300000000     0.0252878  
C        C      0.394500000000     0.791200000000     0.141400000000     0.0252878  
C        C      0.392600000000     0.874700000000     0.056300000000     0.0252878  
C        C      0.103700000000     0.441200000000     0.215000000000     0.0252878  
C        C      0.370800000000     0.015700000000     0.332300000000     0.0252878  
C        C      0.323200000000     0.941900000000     0.422700000000     0.0252878  
C        C      0.446100000000     0.862000000000     0.459000000000     0.0252878  
C        C      0.614500000000     0.850900000000     0.408300000000     0.0252878  
C        C      0.658100000000     0.922700000000     0.317500000000     0.0252878  
C        C      0.536800000000     0.006000000000     0.278000000000     0.0252878  
C        C      0.243500000000     0.106900000000     0.293700000000     0.0252878  
C        C      0.951000000000     0.844700000000     0.293100000000     0.0252878  
C        C      0.105500000000     0.858600000000     0.208800000000     0.0252878  
C        C      0.107400000000     0.943700000000     0.125300000000     0.0252878  
C        C      0.396300000000     0.785000000000     0.558800000000     0.0252878  
C        C      0.750000000000     0.047700000000     0.952300000000     0.0252878  
C        C      0.750000000000     0.216800000000     0.783200000000     0.0252878  
C        C      0.250000000000     0.952300000000     0.047700000000     0.0252878  
C        C      0.250000000000     0.783200000000     0.216800000000     0.0252878  
O        O      0.590300000000     0.341340000000     0.108940000000    -0.28154    
O        O      0.787200000000     0.218120000000     0.178240000000    -0.28154    
O        O      0.736300000000     0.579000000000     0.773800000000    -0.28154    
O        O      0.019800000000     0.612300000000     0.738720000000    -0.28154    
O        O      0.313200000000     0.256440000000     0.920280000000    -0.28154    
O        O      0.909700000000     0.891060000000     0.658660000000    -0.28154    
O        O      0.712800000000     0.821760000000     0.781880000000    -0.28154    
O        O      0.763700000000     0.226200000000     0.421000000000    -0.28154    
O        O      0.480200000000     0.261280000000     0.387700000000    -0.28154    
O        O      0.186800000000     0.079720000000     0.743560000000    -0.28154    
O        O      0.409700000000     0.658660000000     0.891060000000    -0.28154    
O        O      0.212800000000     0.781880000000     0.821760000000    -0.28154    
O        O      0.263700000000     0.421000000000     0.226200000000    -0.28154    
O        O      0.980200000000     0.387700000000     0.261280000000    -0.28154    
O        O      0.686800000000     0.743560000000     0.079720000000    -0.28154    
O        O      0.090300000000     0.108940000000     0.341340000000    -0.28154    
O        O      0.287200000000     0.178240000000     0.218120000000    -0.28154    
O        O      0.236300000000     0.773800000000     0.579000000000    -0.28154    
O        O      0.519800000000     0.738720000000     0.612300000000    -0.28154    
O        O      0.813200000000     0.920280000000     0.256440000000    -0.28154    


