data_QOMDUS_original

_audit_creation_method RASPA-1.0
_audit_creation_date 2022-1-29
_audit_author_name 'Felipe Lopes de Oliveira <felipe.lopes.oliveira@ibm.com>'

_cell_length_a    9.1586
_cell_length_b    9.7969
_cell_length_c    9.873
_cell_angle_alpha 77.598
_cell_angle_beta  89.947
_cell_angle_gamma 88.06
_cell_volume      864.678

_symmetry_cell_setting          triclinic
_symmetry_space_group_name_Hall 'P 1'
_symmetry_space_group_name_H-M  'P 1'
_symmetry_Int_Tables_number     1

_symmetry_equiv_pos_as_xyz 'x,y,z'

loop_
_atom_site_label
_atom_site_type_symbol
_atom_site_fract_x
_atom_site_fract_y
_atom_site_fract_z
_atom_site_charge
Zn       Zn     0.779800000000     0.713240000000     0.808900000000     0.48424    
Zn       Zn     0.697200000000     0.370240000000     0.910580000000     0.48424    
Zn       Zn     0.220200000000     0.286760000000     0.191100000000     0.48424    
Zn       Zn     0.302800000000     0.629760000000     0.089420000000     0.48424    
Zn       Zn     0.000000000000     0.500000000000     0.000000000000     0.48424    
H        H      0.728600000000     0.548300000000     0.050400000000     0.117469   
H        H      0.900700000000     0.601400000000     0.428700000000     0.117469   
H        H      0.896500000000     0.976800000000     0.905100000000     0.117469   
H        H      0.489700000000     0.645200000000     0.467700000000     0.117469   
H        H      0.386100000000     0.922500000000     0.069800000000     0.117469   
H        H      0.271400000000     0.451700000000     0.949600000000     0.117469   
H        H      0.099300000000     0.398600000000     0.571300000000     0.117469   
H        H      0.103500000000     0.023200000000     0.094900000000     0.117469   
H        H      0.510300000000     0.354800000000     0.532300000000     0.117469   
H        H      0.613900000000     0.077500000000     0.930200000000     0.117469   
C        C      0.015200000000     0.474300000000     0.310700000000     0.117687   
C        C      0.971600000000     0.526900000000     0.437800000000     0.117687   
C        C      0.050100000000     0.810900000000     0.984800000000     0.117687   
C        C      0.977500000000     0.953400000000     0.966700000000     0.117687   
C        C      0.593800000000     0.547400000000     0.658100000000     0.117687   
C        C      0.516200000000     0.555700000000     0.522600000000     0.117687   
C        C      0.548100000000     0.811800000000     0.980700000000     0.117687   
C        C      0.474000000000     0.935300000000     0.018100000000     0.117687   
C        C      0.984800000000     0.525700000000     0.689300000000     0.117687   
C        C      0.028400000000     0.473100000000     0.562200000000     0.117687   
C        C      0.949900000000     0.189100000000     0.015200000000     0.117687   
C        C      0.022500000000     0.046600000000     0.033300000000     0.117687   
C        C      0.406200000000     0.452600000000     0.341900000000     0.117687   
C        C      0.483800000000     0.444300000000     0.477400000000     0.117687   
C        C      0.451900000000     0.188200000000     0.019300000000     0.117687   
C        C      0.526000000000     0.064700000000     0.981900000000     0.117687   
O        O      0.778700000000     0.529800000000     0.965700000000    -0.304383   
O        O      0.967000000000     0.542900000000     0.196300000000    -0.304383   
O        O      0.097000000000     0.366400000000     0.328200000000    -0.304383   
O        O      0.994700000000     0.724200000000     0.924000000000    -0.304383   
O        O      0.165000000000     0.789100000000     0.058500000000    -0.304383   
O        O      0.601500000000     0.658200000000     0.700800000000    -0.304383   
O        O      0.645500000000     0.427200000000     0.716000000000    -0.304383   
O        O      0.671400000000     0.829200000000     0.924900000000    -0.304383   
O        O      0.486000000000     0.695500000000     0.002900000000    -0.304383   
O        O      0.221300000000     0.470200000000     0.034300000000    -0.304383   
O        O      0.033000000000     0.457100000000     0.803700000000    -0.304383   
O        O      0.903000000000     0.633600000000     0.671800000000    -0.304383   
O        O      0.005300000000     0.275800000000     0.076000000000    -0.304383   
O        O      0.835000000000     0.210900000000     0.941500000000    -0.304383   
O        O      0.398500000000     0.341800000000     0.299200000000    -0.304383   
O        O      0.354500000000     0.572800000000     0.284000000000    -0.304383   
O        O      0.328600000000     0.170800000000     0.075100000000    -0.304383   
O        O      0.514000000000     0.304500000000     0.997100000000    -0.304383   


