data_QOMFAA_original

_audit_creation_method RASPA-1.0
_audit_creation_date 2022-1-28
_audit_author_name 'Felipe Lopes de Oliveira <felipe.lopes.oliveira@ibm.com>'

_cell_length_a    8.7651
_cell_length_b    8.7941
_cell_length_c    13.6911
_cell_angle_alpha 73.567
_cell_angle_beta  73.048
_cell_angle_gamma 81.472
_cell_volume      965.742

_symmetry_cell_setting          triclinic
_symmetry_space_group_name_Hall 'P 1'
_symmetry_space_group_name_H-M  'P 1'
_symmetry_Int_Tables_number     1

_symmetry_equiv_pos_as_xyz 'x,y,z'

loop_
_atom_site_label
_atom_site_type_symbol
_atom_site_fract_x
_atom_site_fract_y
_atom_site_fract_z
_atom_site_charge
Zn       Zn     0.503940000000     0.151250000000     0.144780000000     0.47373    
Zn       Zn     0.375940000000     0.100680000000     0.379990000000     0.47373    
H        H      0.885000000000     0.260600000000     0.620200000000     0.0784387  
H        H      0.072300000000     0.243200000000     0.464600000000     0.0784387  
H        H      0.568100000000     0.963500000000     0.982500000000     0.0784387  
H        H      0.765100000000     0.932000000000     0.831900000000     0.0784387  
H        H      0.961800000000     0.317300000000     0.835200000000     0.0784387  
H        H      0.758400000000     0.340700000000     0.982800000000     0.0784387  
H        H      0.100200000000     0.876700000000     0.872100000000     0.0784387  
H        H      0.300300000000     0.717000000000     0.789200000000     0.0784387  
H        H      0.504600000000     0.970800000000     0.728700000000     0.0784387  
H        H      0.566500000000     0.795500000000     0.713600000000     0.0784387  
H        H      0.410900000000     0.818700000000     0.595000000000     0.0784387  
H        H      0.504900000000     0.976900000000     0.554600000000     0.0784387  
H        H      0.253500000000     0.922700000000     0.000400000000     0.0784387  
H        H      0.216200000000     0.109200000000     0.991600000000     0.0784387  
H        H      0.077700000000     0.003200000000     0.999100000000     0.0784387  
H        H      0.461800000000     0.546600000000     0.863000000000     0.0784387  
H        H      0.592600000000     0.634900000000     0.883000000000     0.0784387  
H        H      0.459500000000     0.543500000000     0.980900000000     0.0784387  
H        H      0.902700000000     0.098100000000     0.369100000000     0.0784387  
H        H      0.986000000000     0.171900000000     0.149800000000     0.0784387  
H        H      0.476100000000     0.664500000000     0.155900000000     0.0784387  
H        H      0.402700000000     0.587600000000     0.374100000000     0.0784387  
C        C      0.261400000000     0.019100000000     0.619300000000     0.0146105  
C        C      0.151800000000     0.016200000000     0.718200000000     0.0146105  
C        C      0.008400000000     0.111800000000     0.716800000000     0.0146105  
C        C      0.981300000000     0.195400000000     0.622100000000     0.0146105  
C        C      0.093400000000     0.185100000000     0.529800000000     0.0146105  
C        C      0.649200000000     0.036500000000     0.952000000000     0.0146105  
C        C      0.765500000000     0.017200000000     0.861700000000     0.0146105  
C        C      0.882500000000     0.125800000000     0.816100000000     0.0146105  
C        C      0.880800000000     0.244100000000     0.863400000000     0.0146105  
C        C      0.760900000000     0.255800000000     0.952000000000     0.0146105  
C        C      0.195200000000     0.929500000000     0.819900000000     0.0146105  
C        C      0.335200000000     0.807700000000     0.806000000000     0.0146105  
C        C      0.473400000000     0.874700000000     0.717300000000     0.0146105  
C        C      0.420900000000     0.918000000000     0.612500000000     0.0146105  
C        C      0.192200000000     0.018800000000     0.971300000000     0.0146105  
C        C      0.481000000000     0.607600000000     0.907600000000     0.0146105  
C        C      0.714700000000     0.114300000000     0.293300000000     0.0146105  
C        C      0.884500000000     0.118100000000     0.301300000000     0.0146105  
C        C      0.005100000000     0.148000000000     0.217600000000     0.0146105  
C        C      0.168500000000     0.145900000000     0.224800000000     0.0146105  
C        C      0.436200000000     0.430100000000     0.233600000000     0.0146105  
C        C      0.449400000000     0.595200000000     0.224700000000     0.0146105  
C        C      0.427200000000     0.655600000000     0.304800000000     0.0146105  
C        C      0.439300000000     0.832500000000     0.290700000000     0.0146105  
N        N      0.230800000000     0.096500000000     0.528500000000    -0.1637     
N        N      0.645600000000     0.151000000000     0.997500000000    -0.1637     
O        O      0.235400000000     0.050200000000     0.857900000000    -0.269636   
O        O      0.377200000000     0.750500000000     0.901700000000    -0.269636   
O        O      0.604200000000     0.105500000000     0.378600000000    -0.269636   
O        O      0.696100000000     0.113700000000     0.207200000000    -0.269636   
O        O      0.191000000000     0.110000000000     0.315100000000    -0.269636   
O        O      0.273900000000     0.180400000000     0.139100000000    -0.269636   
O        O      0.371700000000     0.341000000000     0.325100000000    -0.269636   
O        O      0.493700000000     0.381000000000     0.150800000000    -0.269636   
O        O      0.415800000000     0.874500000000     0.374500000000    -0.269636   
O        O      0.470800000000     0.916300000000     0.200300000000    -0.269636   


