data_QONQEQ_original

_audit_creation_method RASPA-1.0
_audit_creation_date 2022-1-31
_audit_author_name 'Felipe Lopes de Oliveira <felipe.lopes.oliveira@ibm.com>'

_cell_length_a    6.65254
_cell_length_b    11.1094
_cell_length_c    11.1094
_cell_angle_alpha 74.0221
_cell_angle_beta  72.58
_cell_angle_gamma 72.58
_cell_volume      731.752

_symmetry_cell_setting          triclinic
_symmetry_space_group_name_Hall 'P 1'
_symmetry_space_group_name_H-M  'P 1'
_symmetry_Int_Tables_number     1

_symmetry_equiv_pos_as_xyz 'x,y,z'

loop_
_atom_site_label
_atom_site_type_symbol
_atom_site_fract_x
_atom_site_fract_y
_atom_site_fract_z
_atom_site_charge
Al       Al     0.498809000000     0.497795000000     0.996975000000     17.6574    
Al       Al     0.999059000000     0.497865000000     0.996905000000     17.6574    
H        H      0.734695000000     0.883003000000     0.993723000000     0.386129   
H        H      0.762944000000     0.502556000000     0.611296000000     0.386129   
H        H      0.881724000000     0.493926000000     0.382086000000     0.386129   
H        H      0.615775000000     0.112163000000     0.002503000000     0.386129   
H        H      0.262514000000     0.112096000000     0.002536000000     0.386129   
H        H      0.234765000000     0.494473000000     0.382093000000     0.386129   
H        H      0.115955000000     0.503113000000     0.611293000000     0.386129   
H        H      0.381404000000     0.882916000000     0.993756000000     0.386129   
H        H      0.249189000000     0.379340000000     0.114520000000     0.386129   
H        H      0.749289000000     0.615510000000     0.878530000000     0.386129   
C        C      0.852213000000     0.931626000000     0.995126000000     0.552686   
C        C      0.645485000000     0.500964000000     0.562744000000     0.552686   
C        C      0.714175000000     0.495424000000     0.430744000000     0.552686   
C        C      0.783433000000     0.063616000000     0.000716000000     0.552686   
C        C      0.145145000000     0.063584000000     0.000724000000     0.552686   
C        C      0.352303000000     0.495746000000     0.430766000000     0.552686   
C        C      0.283623000000     0.501276000000     0.562756000000     0.552686   
C        C      0.213915000000     0.931594000000     0.995134000000     0.552686   
C        C      0.069089000000     0.863030000000     0.991830000000     0.552686   
C        C      0.141509000000     0.720690000000     0.989230000000     0.552686   
C        C      0.428949000000     0.503890000000     0.631490000000     0.552686   
C        C      0.356789000000     0.505720000000     0.774000000000     0.552686   
C        C      0.569179000000     0.492430000000     0.362150000000     0.552686   
C        C      0.641489000000     0.490030000000     0.219790000000     0.552686   
C        C      0.928659000000     0.132350000000     0.003490000000     0.552686   
C        C      0.856569000000     0.274880000000     0.005140000000     0.552686   
O        O      0.341553000000     0.662303000000     0.989363000000    -4.80191    
O        O      0.156665000000     0.505437000000     0.832417000000    -4.80191    
O        O      0.499495000000     0.490217000000     0.161417000000    -4.80191    
O        O      0.998483000000     0.333323000000     0.004603000000    -4.80191    
O        O      0.656495000000     0.333317000000     0.004717000000    -4.80191    
O        O      0.841483000000     0.490123000000     0.161383000000    -4.80191    
O        O      0.498653000000     0.505203000000     0.832443000000    -4.80191    
O        O      0.999475000000     0.662387000000     0.989267000000    -4.80191    
O        O      0.249089000000     0.444160000000     0.050520000000    -4.80191    
O        O      0.748949000000     0.551400000000     0.943220000000    -4.80191    


