data_QUFFED_original

_audit_creation_method RASPA-1.0
_audit_creation_date 2022-1-30
_audit_author_name 'Felipe Lopes de Oliveira <felipe.lopes.oliveira@ibm.com>'

_cell_length_a    10.9357
_cell_length_b    10.9357
_cell_length_c    12.4549
_cell_angle_alpha 101.572
_cell_angle_beta  101.572
_cell_angle_gamma 99.2271
_cell_volume      1397.97

_symmetry_cell_setting          triclinic
_symmetry_space_group_name_Hall 'P 1'
_symmetry_space_group_name_H-M  'P 1'
_symmetry_Int_Tables_number     1

_symmetry_equiv_pos_as_xyz 'x,y,z'

loop_
_atom_site_label
_atom_site_type_symbol
_atom_site_fract_x
_atom_site_fract_y
_atom_site_fract_z
_atom_site_charge
Zn       Zn     0.736040000000     0.340810000000     0.376300000000     0.462459   
Zn       Zn     0.659190000000     0.263960000000     0.123700000000     0.462459   
Zn       Zn     0.263960000000     0.659190000000     0.623700000000     0.462459   
Zn       Zn     0.340810000000     0.736040000000     0.876300000000     0.462459   
H        H      0.067000000000     0.391000000000     0.799000000000    -0.015877   
H        H      0.983000000000     0.267000000000     0.838000000000    -0.015877   
H        H      0.053000000000     0.237000000000     0.726000000000    -0.015877   
H        H      0.517900000000     0.254100000000     0.506000000000    -0.015877   
H        H      0.514800000000     0.253200000000     0.618000000000    -0.015877   
H        H      0.531300000000     0.369300000000     0.586000000000    -0.015877   
H        H      0.946300000000     0.359700000000     0.577100000000    -0.015877   
H        H      0.037200000000     0.244800000000     0.088000000000    -0.015877   
H        H      0.238900000000     0.223100000000     0.077000000000    -0.015877   
H        H      0.365300000000     0.374700000000     0.411000000000    -0.015877   
H        H      0.158600000000     0.375800000000     0.422000000000    -0.015877   
H        H      0.609000000000     0.933000000000     0.701000000000    -0.015877   
H        H      0.733000000000     0.017000000000     0.662000000000    -0.015877   
H        H      0.763000000000     0.947000000000     0.774000000000    -0.015877   
H        H      0.745900000000     0.482100000000     0.994000000000    -0.015877   
H        H      0.746800000000     0.485200000000     0.882000000000    -0.015877   
H        H      0.630700000000     0.468700000000     0.914000000000    -0.015877   
H        H      0.640300000000     0.053700000000     0.922900000000    -0.015877   
H        H      0.755200000000     0.962800000000     0.412000000000    -0.015877   
H        H      0.776900000000     0.761100000000     0.423000000000    -0.015877   
H        H      0.625300000000     0.634700000000     0.089000000000    -0.015877   
H        H      0.624200000000     0.841400000000     0.078000000000    -0.015877   
H        H      0.933000000000     0.609000000000     0.201000000000    -0.015877   
H        H      0.017000000000     0.733000000000     0.162000000000    -0.015877   
H        H      0.947000000000     0.763000000000     0.274000000000    -0.015877   
H        H      0.482100000000     0.745900000000     0.494000000000    -0.015877   
H        H      0.485200000000     0.746800000000     0.382000000000    -0.015877   
H        H      0.468700000000     0.630700000000     0.414000000000    -0.015877   
H        H      0.053700000000     0.640300000000     0.422900000000    -0.015877   
H        H      0.962800000000     0.755200000000     0.912000000000    -0.015877   
H        H      0.761100000000     0.776900000000     0.923000000000    -0.015877   
H        H      0.634700000000     0.625300000000     0.589000000000    -0.015877   
H        H      0.841400000000     0.624200000000     0.578000000000    -0.015877   
H        H      0.391000000000     0.067000000000     0.299000000000    -0.015877   
H        H      0.267000000000     0.983000000000     0.338000000000    -0.015877   
H        H      0.237000000000     0.053000000000     0.226000000000    -0.015877   
H        H      0.254100000000     0.517900000000     0.006000000000    -0.015877   
H        H      0.253200000000     0.514800000000     0.118000000000    -0.015877   
H        H      0.369300000000     0.531300000000     0.086000000000    -0.015877   
H        H      0.359700000000     0.946300000000     0.077100000000    -0.015877   
H        H      0.244800000000     0.037200000000     0.588000000000    -0.015877   
H        H      0.223100000000     0.238900000000     0.577000000000    -0.015877   
H        H      0.374700000000     0.365300000000     0.911000000000    -0.015877   
H        H      0.375800000000     0.158600000000     0.922000000000    -0.015877   
C        C      0.764870000000     0.282490000000     0.704510000000     0.0885178  
C        C      0.939500000000     0.318040000000     0.267700000000     0.0885178  
C        C      0.073990000000     0.310810000000     0.259100000000     0.0885178  
C        C      0.098800000000     0.267200000000     0.154800000000     0.0885178  
C        C      0.223100000000     0.261700000000     0.147300000000     0.0885178  
C        C      0.322960000000     0.299240000000     0.242600000000     0.0885178  
C        C      0.457820000000     0.291580000000     0.235500000000     0.0885178  
C        C      0.297970000000     0.343230000000     0.346500000000     0.0885178  
C        C      0.173940000000     0.347860000000     0.355000000000     0.0885178  
C        C      0.887500000000     0.308900000000     0.692300000000     0.0885178  
C        C      0.006300000000     0.300300000000     0.769500000000     0.0885178  
C        C      0.548500000000     0.294500000000     0.575800000000     0.0885178  
C        C      0.688900000000     0.305900000000     0.605400000000     0.0885178  
C        C      0.717510000000     0.235130000000     0.795490000000     0.0885178  
C        C      0.681960000000     0.060500000000     0.232300000000     0.0885178  
C        C      0.689190000000     0.926010000000     0.240900000000     0.0885178  
C        C      0.732800000000     0.901200000000     0.345200000000     0.0885178  
C        C      0.738300000000     0.776900000000     0.352700000000     0.0885178  
C        C      0.700760000000     0.677040000000     0.257400000000     0.0885178  
C        C      0.708420000000     0.542180000000     0.264500000000     0.0885178  
C        C      0.656770000000     0.702030000000     0.153500000000     0.0885178  
C        C      0.652140000000     0.826060000000     0.145000000000     0.0885178  
C        C      0.691100000000     0.112500000000     0.807700000000     0.0885178  
C        C      0.699700000000     0.993700000000     0.730500000000     0.0885178  
C        C      0.705500000000     0.451500000000     0.924200000000     0.0885178  
C        C      0.694100000000     0.311100000000     0.894600000000     0.0885178  
C        C      0.235130000000     0.717510000000     0.295490000000     0.0885178  
C        C      0.060500000000     0.681960000000     0.732300000000     0.0885178  
C        C      0.926010000000     0.689190000000     0.740900000000     0.0885178  
C        C      0.901200000000     0.732800000000     0.845200000000     0.0885178  
C        C      0.776900000000     0.738300000000     0.852700000000     0.0885178  
C        C      0.677040000000     0.700760000000     0.757400000000     0.0885178  
C        C      0.542180000000     0.708420000000     0.764500000000     0.0885178  
C        C      0.702030000000     0.656770000000     0.653500000000     0.0885178  
C        C      0.826060000000     0.652140000000     0.645000000000     0.0885178  
C        C      0.112500000000     0.691100000000     0.307700000000     0.0885178  
C        C      0.993700000000     0.699700000000     0.230500000000     0.0885178  
C        C      0.451500000000     0.705500000000     0.424200000000     0.0885178  
C        C      0.311100000000     0.694100000000     0.394600000000     0.0885178  
C        C      0.282490000000     0.764870000000     0.204510000000     0.0885178  
C        C      0.318040000000     0.939500000000     0.767700000000     0.0885178  
C        C      0.310810000000     0.073990000000     0.759100000000     0.0885178  
C        C      0.267200000000     0.098800000000     0.654800000000     0.0885178  
C        C      0.261700000000     0.223100000000     0.647300000000     0.0885178  
C        C      0.299240000000     0.322960000000     0.742600000000     0.0885178  
C        C      0.291580000000     0.457820000000     0.735500000000     0.0885178  
C        C      0.343230000000     0.297970000000     0.846500000000     0.0885178  
C        C      0.347860000000     0.173940000000     0.855000000000     0.0885178  
C        C      0.308900000000     0.887500000000     0.192300000000     0.0885178  
C        C      0.300300000000     0.006300000000     0.269500000000     0.0885178  
C        C      0.294500000000     0.548500000000     0.075800000000     0.0885178  
C        C      0.305900000000     0.688900000000     0.105400000000     0.0885178  
N        N      0.769700000000     0.337120000000     0.541330000000    -0.150264   
N        N      0.887200000000     0.341200000000     0.597600000000    -0.150264   
N        N      0.662880000000     0.230300000000     0.958670000000    -0.150264   
N        N      0.658800000000     0.112800000000     0.902400000000    -0.150264   
N        N      0.230300000000     0.662880000000     0.458670000000    -0.150264   
N        N      0.112800000000     0.658800000000     0.402400000000    -0.150264   
N        N      0.337120000000     0.769700000000     0.041330000000    -0.150264   
N        N      0.341200000000     0.887200000000     0.097600000000    -0.150264   
O        O      0.854240000000     0.287880000000     0.178470000000    -0.284504   
O        O      0.922390000000     0.356710000000     0.365650000000    -0.284504   
O        O      0.542340000000     0.324220000000     0.325420000000    -0.284504   
O        O      0.475190000000     0.250250000000     0.138300000000    -0.284504   
O        O      0.712120000000     0.145760000000     0.321530000000    -0.284504   
O        O      0.643290000000     0.077610000000     0.134350000000    -0.284504   
O        O      0.675780000000     0.457660000000     0.174580000000    -0.284504   
O        O      0.749750000000     0.524810000000     0.361700000000    -0.284504   
O        O      0.145760000000     0.712120000000     0.821530000000    -0.284504   
O        O      0.077610000000     0.643290000000     0.634350000000    -0.284504   
O        O      0.457660000000     0.675780000000     0.674580000000    -0.284504   
O        O      0.524810000000     0.749750000000     0.861700000000    -0.284504   
O        O      0.287880000000     0.854240000000     0.678470000000    -0.284504   
O        O      0.356710000000     0.922390000000     0.865650000000    -0.284504   
O        O      0.324220000000     0.542340000000     0.825420000000    -0.284504   
O        O      0.250250000000     0.475190000000     0.638300000000    -0.284504   


