data_QUPHUF_original

_audit_creation_method RASPA-1.0
_audit_creation_date 2022-1-29
_audit_author_name 'Felipe Lopes de Oliveira <felipe.lopes.oliveira@ibm.com>'

_cell_length_a    9.3046
_cell_length_b    13.7029
_cell_length_c    19.9111
_cell_angle_alpha 86.5705
_cell_angle_beta  79.8517
_cell_angle_gamma 70.1529
_cell_volume      2350.52

_symmetry_cell_setting          triclinic
_symmetry_space_group_name_Hall 'P 1'
_symmetry_space_group_name_H-M  'P 1'
_symmetry_Int_Tables_number     1

_symmetry_equiv_pos_as_xyz 'x,y,z'

loop_
_atom_site_label
_atom_site_type_symbol
_atom_site_fract_x
_atom_site_fract_y
_atom_site_fract_z
_atom_site_charge
Zn       Zn     0.596660000000     0.741660000000     0.011930000000     0.431427   
Zn       Zn     0.161680000000     0.741660000000     0.488070000000     0.431427   
Zn       Zn     0.403340000000     0.258340000000     0.988070000000     0.431427   
Zn       Zn     0.838320000000     0.258340000000     0.511930000000     0.431427   
H        H      0.387100000000     0.632000000000     0.066700000000     0.0597605  
H        H      0.376900000000     0.486200000000     0.125900000000     0.0597605  
H        H      0.827700000000     0.411400000000     0.131300000000     0.0597605  
H        H      0.824800000000     0.557200000000     0.070900000000     0.0597605  
H        H      0.762700000000     0.314800000000     0.223200000000     0.0597605  
H        H      0.785800000000     0.237600000000     0.163400000000     0.0597605  
H        H      0.514900000000     0.117400000000     0.242700000000     0.0597605  
H        H      0.526300000000     0.187200000000     0.177600000000     0.0597605  
H        H      0.891600000000     0.885200000000     0.145400000000     0.0597605  
H        H      0.855700000000     0.764000000000     0.083000000000     0.0597605  
H        H      0.437700000000     0.947600000000     0.070400000000     0.0597605  
H        H      0.470800000000     0.074200000000     0.126300000000     0.0597605  
H        H      0.787400000000     0.825000000000     0.806700000000     0.0597605  
H        H      0.951200000000     0.514400000000     0.806700000000     0.0597605  
H        H      0.019500000000     0.854400000000     0.941000000000     0.0597605  
H        H      0.203400000000     0.991800000000     0.054200000000     0.0597605  
H        H      0.480900000000     0.632000000000     0.433300000000     0.0597605  
H        H      0.636900000000     0.486200000000     0.374100000000     0.0597605  
H        H      0.260900000000     0.411400000000     0.368700000000     0.0597605  
H        H      0.118000000000     0.557200000000     0.429100000000     0.0597605  
H        H      0.422500000000     0.314800000000     0.276800000000     0.0597605  
H        H      0.476600000000     0.237600000000     0.336600000000     0.0597605  
H        H      0.867700000000     0.117400000000     0.257300000000     0.0597605  
H        H      0.786500000000     0.187200000000     0.322400000000     0.0597605  
H        H      0.723200000000     0.885200000000     0.354600000000     0.0597605  
H        H      0.880300000000     0.764000000000     0.417000000000     0.0597605  
H        H      0.114700000000     0.947600000000     0.429600000000     0.0597605  
H        H      0.955000000000     0.074200000000     0.373700000000     0.0597605  
H        H      0.887600000000     0.825000000000     0.693300000000     0.0597605  
H        H      0.034400000000     0.514400000000     0.693300000000     0.0597605  
H        H      0.626100000000     0.854400000000     0.559000000000     0.0597605  
H        H      0.304800000000     0.991800000000     0.445800000000     0.0597605  
H        H      0.612900000000     0.368000000000     0.933300000000     0.0597605  
H        H      0.623100000000     0.513800000000     0.874100000000     0.0597605  
H        H      0.172300000000     0.588600000000     0.868700000000     0.0597605  
H        H      0.175200000000     0.442800000000     0.929100000000     0.0597605  
H        H      0.237300000000     0.685200000000     0.776800000000     0.0597605  
H        H      0.214200000000     0.762400000000     0.836600000000     0.0597605  
H        H      0.485100000000     0.882600000000     0.757300000000     0.0597605  
H        H      0.473700000000     0.812800000000     0.822400000000     0.0597605  
H        H      0.108400000000     0.114800000000     0.854600000000     0.0597605  
H        H      0.144300000000     0.236000000000     0.917000000000     0.0597605  
H        H      0.562300000000     0.052400000000     0.929600000000     0.0597605  
H        H      0.529200000000     0.925800000000     0.873700000000     0.0597605  
H        H      0.212600000000     0.175000000000     0.193300000000     0.0597605  
H        H      0.048800000000     0.485600000000     0.193300000000     0.0597605  
H        H      0.980500000000     0.145600000000     0.059000000000     0.0597605  
H        H      0.796600000000     0.008200000000     0.945800000000     0.0597605  
H        H      0.519100000000     0.368000000000     0.566700000000     0.0597605  
H        H      0.363100000000     0.513800000000     0.625900000000     0.0597605  
H        H      0.739100000000     0.588600000000     0.631300000000     0.0597605  
H        H      0.882000000000     0.442800000000     0.570900000000     0.0597605  
H        H      0.577500000000     0.685200000000     0.723200000000     0.0597605  
H        H      0.523400000000     0.762400000000     0.663400000000     0.0597605  
H        H      0.132300000000     0.882600000000     0.742700000000     0.0597605  
H        H      0.213500000000     0.812800000000     0.677600000000     0.0597605  
H        H      0.276800000000     0.114800000000     0.645400000000     0.0597605  
H        H      0.119700000000     0.236000000000     0.583000000000     0.0597605  
H        H      0.885300000000     0.052400000000     0.570400000000     0.0597605  
H        H      0.045000000000     0.925800000000     0.626300000000     0.0597605  
H        H      0.112400000000     0.175000000000     0.306700000000     0.0597605  
H        H      0.965600000000     0.485600000000     0.306700000000     0.0597605  
H        H      0.373900000000     0.145600000000     0.441000000000     0.0597605  
H        H      0.695200000000     0.008200000000     0.554200000000     0.0597605  
C        C      0.477300000000     0.586800000000     0.080000000000     0.0328327  
C        C      0.469900000000     0.499600000000     0.115800000000     0.0328327  
C        C      0.599900000000     0.433400000000     0.136400000000     0.0328327  
C        C      0.736000000000     0.455600000000     0.118700000000     0.0328327  
C        C      0.732700000000     0.543000000000     0.082700000000     0.0328327  
C        C      0.711370000000     0.279060000000     0.200200000000     0.0328327  
C        C      0.583740000000     0.145320000000     0.211400000000     0.0328327  
C        C      0.683400000000     0.993600000000     0.143800000000     0.0328327  
C        C      0.798200000000     0.899400000000     0.129700000000     0.0328327  
C        C      0.775600000000     0.826400000000     0.092700000000     0.0328327  
C        C      0.532100000000     0.935000000000     0.084900000000     0.0328327  
C        C      0.549900000000     0.010600000000     0.119300000000     0.0328327  
C        C      0.797500000000     0.667400000000     0.894900000000     0.0328327  
C        C      0.859800000000     0.669400000000     0.819500000000     0.0328327  
C        C      0.840200000000     0.762200000000     0.784000000000     0.0328327  
C        C      0.935800000000     0.577200000000     0.783600000000     0.0328327  
C        C      0.268800000000     0.815000000000     0.993400000000     0.0328327  
C        C      0.129300000000     0.910800000000     0.997500000000     0.0328327  
C        C      0.012200000000     0.912400000000     0.965200000000     0.0328327  
C        C      0.121100000000     0.998000000000     0.031900000000     0.0328327  
C        C      0.435900000000     0.586800000000     0.420000000000     0.0328327  
C        C      0.530500000000     0.499600000000     0.384200000000     0.0328327  
C        C      0.466700000000     0.433400000000     0.363600000000     0.0328327  
C        C      0.308400000000     0.455600000000     0.381300000000     0.0328327  
C        C      0.224300000000     0.543000000000     0.417300000000     0.0328327  
C        C      0.509570000000     0.279060000000     0.299800000000     0.0328327  
C        C      0.770940000000     0.145320000000     0.288600000000     0.0328327  
C        C      0.823000000000     0.993600000000     0.356200000000     0.0328327  
C        C      0.802400000000     0.899400000000     0.370300000000     0.0328327  
C        C      0.898000000000     0.826400000000     0.407300000000     0.0328327  
C        C      0.032900000000     0.935000000000     0.415100000000     0.0328327  
C        C      0.939500000000     0.010600000000     0.380700000000     0.0328327  
C        C      0.035100000000     0.667400000000     0.605100000000     0.0328327  
C        C      0.970800000000     0.669400000000     0.680500000000     0.0328327  
C        C      0.897600000000     0.762200000000     0.716000000000     0.0328327  
C        C      0.987000000000     0.577200000000     0.716400000000     0.0328327  
C        C      0.416200000000     0.815000000000     0.506600000000     0.0328327  
C        C      0.459900000000     0.910800000000     0.502500000000     0.0328327  
C        C      0.575400000000     0.912400000000     0.534800000000     0.0328327  
C        C      0.380900000000     0.998000000000     0.468100000000     0.0328327  
C        C      0.522700000000     0.413200000000     0.920000000000     0.0328327  
C        C      0.530100000000     0.500400000000     0.884200000000     0.0328327  
C        C      0.400100000000     0.566600000000     0.863600000000     0.0328327  
C        C      0.264000000000     0.544400000000     0.881300000000     0.0328327  
C        C      0.267300000000     0.457000000000     0.917300000000     0.0328327  
C        C      0.288630000000     0.720940000000     0.799800000000     0.0328327  
C        C      0.416260000000     0.854680000000     0.788600000000     0.0328327  
C        C      0.316600000000     0.006400000000     0.856200000000     0.0328327  
C        C      0.201800000000     0.100600000000     0.870300000000     0.0328327  
C        C      0.224400000000     0.173600000000     0.907300000000     0.0328327  
C        C      0.467900000000     0.065000000000     0.915100000000     0.0328327  
C        C      0.450100000000     0.989400000000     0.880700000000     0.0328327  
C        C      0.202500000000     0.332600000000     0.105100000000     0.0328327  
C        C      0.140200000000     0.330600000000     0.180500000000     0.0328327  
C        C      0.159800000000     0.237800000000     0.216000000000     0.0328327  
C        C      0.064200000000     0.422800000000     0.216400000000     0.0328327  
C        C      0.731200000000     0.185000000000     0.006600000000     0.0328327  
C        C      0.870700000000     0.089200000000     0.002500000000     0.0328327  
C        C      0.987800000000     0.087600000000     0.034800000000     0.0328327  
C        C      0.878900000000     0.002000000000     0.968100000000     0.0328327  
C        C      0.564100000000     0.413200000000     0.580000000000     0.0328327  
C        C      0.469500000000     0.500400000000     0.615800000000     0.0328327  
C        C      0.533300000000     0.566600000000     0.636400000000     0.0328327  
C        C      0.691600000000     0.544400000000     0.618700000000     0.0328327  
C        C      0.775700000000     0.457000000000     0.582700000000     0.0328327  
C        C      0.490430000000     0.720940000000     0.700200000000     0.0328327  
C        C      0.229060000000     0.854680000000     0.711400000000     0.0328327  
C        C      0.177000000000     0.006400000000     0.643800000000     0.0328327  
C        C      0.197600000000     0.100600000000     0.629700000000     0.0328327  
C        C      0.102000000000     0.173600000000     0.592700000000     0.0328327  
C        C      0.967100000000     0.065000000000     0.584900000000     0.0328327  
C        C      0.060500000000     0.989400000000     0.619300000000     0.0328327  
C        C      0.964900000000     0.332600000000     0.394900000000     0.0328327  
C        C      0.029200000000     0.330600000000     0.319500000000     0.0328327  
C        C      0.102400000000     0.237800000000     0.284000000000     0.0328327  
C        C      0.013000000000     0.422800000000     0.283600000000     0.0328327  
C        C      0.583800000000     0.185000000000     0.493400000000     0.0328327  
C        C      0.540100000000     0.089200000000     0.497500000000     0.0328327  
C        C      0.424600000000     0.087600000000     0.465200000000     0.0328327  
C        C      0.619100000000     0.002000000000     0.531900000000     0.0328327  
C        C      0.644500000000     0.211000000000     0.250000000000     0.0328327  
C        C      0.355500000000     0.789000000000     0.750000000000     0.0328327  
N        N      0.605560000000     0.610080000000     0.063100000000    -0.209067   
N        N      0.643940000000     0.841320000000     0.070100000000    -0.209067   
N        N      0.284360000000     0.610080000000     0.436900000000    -0.209067   
N        N      0.014740000000     0.841320000000     0.429900000000    -0.209067   
N        N      0.394440000000     0.389920000000     0.936900000000    -0.209067   
N        N      0.356060000000     0.158680000000     0.929900000000    -0.209067   
N        N      0.715640000000     0.389920000000     0.563100000000    -0.209067   
N        N      0.985260000000     0.158680000000     0.570100000000    -0.209067   
O        O      0.581910000000     0.351980000000     0.174200000000    -0.273755   
O        O      0.712460000000     0.063080000000     0.178900000000    -0.273755   
O        O      0.695550000000     0.750100000000     0.919400000000    -0.273755   
O        O      0.847900000000     0.589000000000     0.928100000000    -0.273755   
O        O      0.377610000000     0.826580000000     0.017000000000    -0.273755   
O        O      0.268980000000     0.734040000000     0.971500000000    -0.273755   
O        O      0.566110000000     0.351980000000     0.325800000000    -0.273755   
O        O      0.724460000000     0.063080000000     0.321100000000    -0.273755   
O        O      0.054350000000     0.750100000000     0.580600000000    -0.273755   
O        O      0.063100000000     0.589000000000     0.571900000000    -0.273755   
O        O      0.295810000000     0.826580000000     0.483000000000    -0.273755   
O        O      0.496980000000     0.734040000000     0.528500000000    -0.273755   
O        O      0.418090000000     0.648020000000     0.825800000000    -0.273755   
O        O      0.287540000000     0.936920000000     0.821100000000    -0.273755   
O        O      0.304450000000     0.249900000000     0.080600000000    -0.273755   
O        O      0.152100000000     0.411000000000     0.071900000000    -0.273755   
O        O      0.622390000000     0.173420000000     0.983000000000    -0.273755   
O        O      0.731020000000     0.265960000000     0.028500000000    -0.273755   
O        O      0.433890000000     0.648020000000     0.674200000000    -0.273755   
O        O      0.275540000000     0.936920000000     0.678900000000    -0.273755   
O        O      0.945650000000     0.249900000000     0.419400000000    -0.273755   
O        O      0.936900000000     0.411000000000     0.428100000000    -0.273755   
O        O      0.704190000000     0.173420000000     0.517000000000    -0.273755   
O        O      0.503020000000     0.265960000000     0.471500000000    -0.273755   


