data_RACZIG_original

_audit_creation_method RASPA-1.0
_audit_creation_date 2022-1-29
_audit_author_name 'Felipe Lopes de Oliveira <felipe.lopes.oliveira@ibm.com>'

_cell_length_a    6.3964
_cell_length_b    8.9842
_cell_length_c    26.376
_cell_angle_alpha 90
_cell_angle_beta  90
_cell_angle_gamma 90
_cell_volume      1515.74

_symmetry_cell_setting          triclinic
_symmetry_space_group_name_Hall 'P 1'
_symmetry_space_group_name_H-M  'P 1'
_symmetry_Int_Tables_number     1

_symmetry_equiv_pos_as_xyz 'x,y,z'

loop_
_atom_site_label
_atom_site_type_symbol
_atom_site_fract_x
_atom_site_fract_y
_atom_site_fract_z
_atom_site_charge
Zn       Zn     0.000000000000     0.000000000000     0.713440000000     0.505834   
Zn       Zn     0.500000000000     0.000000000000     0.786560000000     0.505834   
Zn       Zn     0.000000000000     0.000000000000     0.286560000000     0.505834   
Zn       Zn     0.500000000000     0.000000000000     0.213440000000     0.505834   
H        H      0.750100000000     0.878400000000     0.625600000000     0.0945684  
H        H      0.745200000000     0.873900000000     0.539400000000     0.0945684  
H        H      0.250100000000     0.121600000000     0.874400000000     0.0945684  
H        H      0.245200000000     0.126100000000     0.960600000000     0.0945684  
H        H      0.749900000000     0.878400000000     0.874400000000     0.0945684  
H        H      0.754800000000     0.873900000000     0.960600000000     0.0945684  
H        H      0.249900000000     0.121600000000     0.625600000000     0.0945684  
H        H      0.254800000000     0.126100000000     0.539400000000     0.0945684  
H        H      0.249900000000     0.121600000000     0.374400000000     0.0945684  
H        H      0.254800000000     0.126100000000     0.460600000000     0.0945684  
H        H      0.749900000000     0.878400000000     0.125600000000     0.0945684  
H        H      0.754800000000     0.873900000000     0.039400000000     0.0945684  
H        H      0.250100000000     0.121600000000     0.125600000000     0.0945684  
H        H      0.245200000000     0.126100000000     0.039400000000     0.0945684  
H        H      0.750100000000     0.878400000000     0.374400000000     0.0945684  
H        H      0.745200000000     0.873900000000     0.460600000000     0.0945684  
C        C      0.754600000000     0.492300000000     0.794270000000     0.115607   
C        C      0.758400000000     0.338500000000     0.794350000000     0.115607   
C        C      0.854500000000     0.928900000000     0.608090000000     0.115607   
C        C      0.850100000000     0.926100000000     0.556110000000     0.115607   
C        C      0.254600000000     0.507700000000     0.705730000000     0.115607   
C        C      0.258400000000     0.661500000000     0.705650000000     0.115607   
C        C      0.354500000000     0.071100000000     0.891910000000     0.115607   
C        C      0.350100000000     0.073900000000     0.943890000000     0.115607   
C        C      0.745400000000     0.492300000000     0.705730000000     0.115607   
C        C      0.741600000000     0.338500000000     0.705650000000     0.115607   
C        C      0.645500000000     0.928900000000     0.891910000000     0.115607   
C        C      0.649900000000     0.926100000000     0.943890000000     0.115607   
C        C      0.245400000000     0.507700000000     0.794270000000     0.115607   
C        C      0.241600000000     0.661500000000     0.794350000000     0.115607   
C        C      0.145500000000     0.071100000000     0.608090000000     0.115607   
C        C      0.149900000000     0.073900000000     0.556110000000     0.115607   
C        C      0.245400000000     0.507700000000     0.205730000000     0.115607   
C        C      0.241600000000     0.661500000000     0.205650000000     0.115607   
C        C      0.145500000000     0.071100000000     0.391910000000     0.115607   
C        C      0.149900000000     0.073900000000     0.443890000000     0.115607   
C        C      0.745400000000     0.492300000000     0.294270000000     0.115607   
C        C      0.741600000000     0.338500000000     0.294350000000     0.115607   
C        C      0.645500000000     0.928900000000     0.108090000000     0.115607   
C        C      0.649900000000     0.926100000000     0.056110000000     0.115607   
C        C      0.254600000000     0.507700000000     0.294270000000     0.115607   
C        C      0.258400000000     0.661500000000     0.294350000000     0.115607   
C        C      0.354500000000     0.071100000000     0.108090000000     0.115607   
C        C      0.350100000000     0.073900000000     0.056110000000     0.115607   
C        C      0.754600000000     0.492300000000     0.205730000000     0.115607   
C        C      0.758400000000     0.338500000000     0.205650000000     0.115607   
C        C      0.854500000000     0.928900000000     0.391910000000     0.115607   
C        C      0.850100000000     0.926100000000     0.443890000000     0.115607   
C        C      0.000000000000     0.000000000000     0.528600000000     0.115607   
C        C      0.500000000000     0.000000000000     0.971400000000     0.115607   
C        C      0.000000000000     0.000000000000     0.471400000000     0.115607   
C        C      0.500000000000     0.000000000000     0.028600000000     0.115607   
C        C      0.750000000000     0.743300000000     0.750000000000     0.115607   
C        C      0.750000000000     0.575400000000     0.750000000000     0.115607   
C        C      0.750000000000     0.255400000000     0.750000000000     0.115607   
C        C      0.250000000000     0.256700000000     0.750000000000     0.115607   
C        C      0.250000000000     0.424600000000     0.750000000000     0.115607   
C        C      0.250000000000     0.744600000000     0.750000000000     0.115607   
C        C      0.250000000000     0.256700000000     0.250000000000     0.115607   
C        C      0.250000000000     0.424600000000     0.250000000000     0.115607   
C        C      0.250000000000     0.744600000000     0.250000000000     0.115607   
C        C      0.750000000000     0.743300000000     0.250000000000     0.115607   
C        C      0.750000000000     0.575400000000     0.250000000000     0.115607   
C        C      0.750000000000     0.255400000000     0.250000000000     0.115607   
N        N      0.000000000000     0.000000000000     0.634750000000    -0.129044   
N        N      0.500000000000     0.000000000000     0.865250000000    -0.129044   
N        N      0.000000000000     0.000000000000     0.365250000000    -0.129044   
N        N      0.500000000000     0.000000000000     0.134750000000    -0.129044   
O        O      0.836200000000     0.806100000000     0.713110000000    -0.238369   
O        O      0.336200000000     0.193900000000     0.786890000000    -0.238369   
O        O      0.663800000000     0.806100000000     0.786890000000    -0.238369   
O        O      0.163800000000     0.193900000000     0.713110000000    -0.238369   
O        O      0.163800000000     0.193900000000     0.286890000000    -0.238369   
O        O      0.663800000000     0.806100000000     0.213110000000    -0.238369   
O        O      0.336200000000     0.193900000000     0.213110000000    -0.238369   
O        O      0.836200000000     0.806100000000     0.286890000000    -0.238369   
O        O      0.750000000000     0.106100000000     0.750000000000    -0.238369   
O        O      0.250000000000     0.893900000000     0.750000000000    -0.238369   
O        O      0.250000000000     0.893900000000     0.250000000000    -0.238369   
O        O      0.750000000000     0.106100000000     0.250000000000    -0.238369   
F        F      0.763800000000     0.560500000000     0.839990000000    -0.35681    
F        F      0.770600000000     0.266300000000     0.839170000000    -0.35681    
F        F      0.263800000000     0.439500000000     0.660010000000    -0.35681    
F        F      0.270600000000     0.733700000000     0.660830000000    -0.35681    
F        F      0.736200000000     0.560500000000     0.660010000000    -0.35681    
F        F      0.729400000000     0.266300000000     0.660830000000    -0.35681    
F        F      0.236200000000     0.439500000000     0.839990000000    -0.35681    
F        F      0.229400000000     0.733700000000     0.839170000000    -0.35681    
F        F      0.236200000000     0.439500000000     0.160010000000    -0.35681    
F        F      0.229400000000     0.733700000000     0.160830000000    -0.35681    
F        F      0.736200000000     0.560500000000     0.339990000000    -0.35681    
F        F      0.729400000000     0.266300000000     0.339170000000    -0.35681    
F        F      0.263800000000     0.439500000000     0.339990000000    -0.35681    
F        F      0.270600000000     0.733700000000     0.339170000000    -0.35681    
F        F      0.763800000000     0.560500000000     0.160010000000    -0.35681    
F        F      0.770600000000     0.266300000000     0.160830000000    -0.35681    


