data_RAJFAL_original

_audit_creation_method RASPA-1.0
_audit_creation_date 2022-1-30
_audit_author_name 'Felipe Lopes de Oliveira <felipe.lopes.oliveira@ibm.com>'

_cell_length_a    9.824
_cell_length_b    9.963
_cell_length_c    10.15
_cell_angle_alpha 74.044
_cell_angle_beta  86.361
_cell_angle_gamma 78.328
_cell_volume      935.388

_symmetry_cell_setting          triclinic
_symmetry_space_group_name_Hall 'P 1'
_symmetry_space_group_name_H-M  'P 1'
_symmetry_Int_Tables_number     1

_symmetry_equiv_pos_as_xyz 'x,y,z'

loop_
_atom_site_label
_atom_site_type_symbol
_atom_site_fract_x
_atom_site_fract_y
_atom_site_fract_z
_atom_site_charge
Ca       Ca     0.507840000000     0.879680000000     0.883470000000     1.32449    
Ca       Ca     0.492160000000     0.120320000000     0.116530000000     1.32449    
Ca       Ca     0.500000000000     0.000000000000     0.500000000000     1.32449    
H        H      0.308600000000     0.721200000000     0.527000000000     0.0420048  
H        H      0.327600000000     0.314000000000     0.530400000000     0.0420048  
H        H      0.488500000000     0.407300000000     0.842100000000     0.0420048  
H        H      0.274000000000     0.416300000000     0.303600000000     0.0420048  
H        H      0.135400000000     0.417300000000     0.390400000000     0.0420048  
H        H      0.263800000000     0.535500000000     0.062400000000     0.0420048  
H        H      0.131900000000     0.656900000000     0.869900000000     0.0420048  
H        H      0.802600000000     0.740400000000     0.107700000000     0.0420048  
H        H      0.931200000000     0.615000000000     0.298800000000     0.0420048  
H        H      0.691400000000     0.278800000000     0.473000000000     0.0420048  
H        H      0.672400000000     0.686000000000     0.469600000000     0.0420048  
H        H      0.511500000000     0.592700000000     0.157900000000     0.0420048  
H        H      0.726000000000     0.583700000000     0.696400000000     0.0420048  
H        H      0.864600000000     0.582700000000     0.609600000000     0.0420048  
H        H      0.736200000000     0.464500000000     0.937600000000     0.0420048  
H        H      0.868100000000     0.343100000000     0.130100000000     0.0420048  
H        H      0.197400000000     0.259600000000     0.892300000000     0.0420048  
H        H      0.068800000000     0.385000000000     0.701200000000     0.0420048  
C        C      0.448800000000     0.687000000000     0.753080000000     0.0457607  
C        C      0.406100000000     0.580400000000     0.692180000000     0.0457607  
C        C      0.334700000000     0.624700000000     0.569950000000     0.0457607  
C        C      0.301800000000     0.524400000000     0.511150000000     0.0457607  
C        C      0.345500000000     0.381000000000     0.571860000000     0.0457607  
C        C      0.416600000000     0.337200000000     0.695930000000     0.0457607  
C        C      0.444500000000     0.436700000000     0.757640000000     0.0457607  
C        C      0.465300000000     0.182300000000     0.759240000000     0.0457607  
C        C      0.191300000000     0.476900000000     0.327500000000     0.0457607  
C        C      0.110000000000     0.560600000000     0.201200000000     0.0457607  
C        C      0.170600000000     0.575000000000     0.071700000000     0.0457607  
C        C      0.091400000000     0.648700000000     0.956400000000     0.0457607  
C        C      0.952900000000     0.710300000000     0.967900000000     0.0457607  
C        C      0.866000000000     0.785700000000     0.843000000000     0.0457607  
C        C      0.894700000000     0.697900000000     0.098000000000     0.0457607  
C        C      0.972100000000     0.623400000000     0.212500000000     0.0457607  
C        C      0.551200000000     0.313000000000     0.246920000000     0.0457607  
C        C      0.593900000000     0.419600000000     0.307820000000     0.0457607  
C        C      0.665300000000     0.375300000000     0.430050000000     0.0457607  
C        C      0.698200000000     0.475600000000     0.488850000000     0.0457607  
C        C      0.654500000000     0.619000000000     0.428140000000     0.0457607  
C        C      0.583400000000     0.662800000000     0.304070000000     0.0457607  
C        C      0.555500000000     0.563300000000     0.242360000000     0.0457607  
C        C      0.534700000000     0.817700000000     0.240760000000     0.0457607  
C        C      0.808700000000     0.523100000000     0.672500000000     0.0457607  
C        C      0.890000000000     0.439400000000     0.798800000000     0.0457607  
C        C      0.829400000000     0.425000000000     0.928300000000     0.0457607  
C        C      0.908600000000     0.351300000000     0.043600000000     0.0457607  
C        C      0.047100000000     0.289700000000     0.032100000000     0.0457607  
C        C      0.134000000000     0.214300000000     0.157000000000     0.0457607  
C        C      0.105300000000     0.302100000000     0.902000000000     0.0457607  
C        C      0.027900000000     0.376600000000     0.787500000000     0.0457607  
O        O      0.923370000000     0.800000000000     0.727950000000    -0.442422   
O        O      0.739030000000     0.831900000000     0.859160000000    -0.442422   
O        O      0.229250000000     0.578040000000     0.390440000000    -0.442422   
O        O      0.454130000000     0.810780000000     0.676150000000    -0.442422   
O        O      0.479860000000     0.651210000000     0.876260000000    -0.442422   
O        O      0.479420000000     0.096060000000     0.686080000000    -0.442422   
O        O      0.492010000000     0.137590000000     0.885440000000    -0.442422   
O        O      0.076630000000     0.200000000000     0.272050000000    -0.442422   
O        O      0.260970000000     0.168100000000     0.140840000000    -0.442422   
O        O      0.770750000000     0.421960000000     0.609560000000    -0.442422   
O        O      0.545870000000     0.189220000000     0.323850000000    -0.442422   
O        O      0.520140000000     0.348790000000     0.123740000000    -0.442422   
O        O      0.520580000000     0.903940000000     0.313920000000    -0.442422   
O        O      0.507990000000     0.862410000000     0.114560000000    -0.442422   


