data_RAPYUE_original

_audit_creation_method RASPA-1.0
_audit_creation_date 2022-1-30
_audit_author_name 'Felipe Lopes de Oliveira <felipe.lopes.oliveira@ibm.com>'

_cell_length_a    10.337
_cell_length_b    14.437
_cell_length_c    19.42
_cell_angle_alpha 90
_cell_angle_beta  90.269
_cell_angle_gamma 90
_cell_volume      2898.12

_symmetry_cell_setting          triclinic
_symmetry_space_group_name_Hall 'P 1'
_symmetry_space_group_name_H-M  'P 1'
_symmetry_Int_Tables_number     1

_symmetry_equiv_pos_as_xyz 'x,y,z'

loop_
_atom_site_label
_atom_site_type_symbol
_atom_site_fract_x
_atom_site_fract_y
_atom_site_fract_z
_atom_site_charge
Zn       Zn     0.654430000000     0.915990000000     0.248550000000     0.47238    
Zn       Zn     0.969150000000     0.985040000000     0.249710000000     0.47238    
Zn       Zn     0.155050000000     0.780100000000     0.251390000000     0.47238    
Zn       Zn     0.469940000000     0.710620000000     0.250290000000     0.47238    
Zn       Zn     0.345570000000     0.415990000000     0.751450000000     0.47238    
Zn       Zn     0.030850000000     0.485040000000     0.750290000000     0.47238    
Zn       Zn     0.844950000000     0.280100000000     0.748610000000     0.47238    
Zn       Zn     0.530060000000     0.210620000000     0.749710000000     0.47238    
H        H      0.955300000000     0.086700000000     0.050300000000     0.0608572  
H        H      0.923600000000     0.175500000000     0.945600000000     0.0608572  
H        H      0.558900000000     0.056500000000     0.941800000000     0.0608572  
H        H      0.573800000000     0.053000000000     0.065400000000     0.0608572  
H        H      0.575000000000     0.051100000000     0.436900000000     0.0608572  
H        H      0.549900000000     0.080200000000     0.550700000000     0.0608572  
H        H      0.932800000000     0.174900000000     0.549500000000     0.0608572  
H        H      0.947000000000     0.093800000000     0.443500000000     0.0608572  
H        H      0.286000000000     0.079300000000     0.279900000000     0.0608572  
H        H      0.271600000000     0.060800000000     0.201600000000     0.0608572  
H        H      0.044700000000     0.586700000000     0.949700000000     0.0608572  
H        H      0.076400000000     0.675500000000     0.054400000000     0.0608572  
H        H      0.441100000000     0.556500000000     0.058200000000     0.0608572  
H        H      0.426200000000     0.553000000000     0.934600000000     0.0608572  
H        H      0.425000000000     0.551100000000     0.563100000000     0.0608572  
H        H      0.450100000000     0.580200000000     0.449300000000     0.0608572  
H        H      0.067200000000     0.674900000000     0.450500000000     0.0608572  
H        H      0.053000000000     0.593800000000     0.556500000000     0.0608572  
H        H      0.714000000000     0.579300000000     0.720100000000     0.0608572  
H        H      0.728400000000     0.560800000000     0.798400000000     0.0608572  
C        C      0.791800000000     0.026700000000     0.130600000000     0.0821995  
C        C      0.769200000000     0.066300000000     0.062000000000     0.0821995  
C        C      0.873600000000     0.095600000000     0.031200000000     0.0821995  
C        C      0.855700000000     0.143000000000     0.965500000000     0.0821995  
C        C      0.734300000000     0.138700000000     0.932800000000     0.0821995  
C        C      0.721500000000     0.169100000000     0.855700000000     0.0821995  
C        C      0.628700000000     0.080000000000     0.966600000000     0.0821995  
C        C      0.644000000000     0.064300000000     0.036900000000     0.0821995  
C        C      0.792300000000     0.024800000000     0.356700000000     0.0821995  
C        C      0.756400000000     0.064900000000     0.434100000000     0.0821995  
C        C      0.647100000000     0.067500000000     0.463000000000     0.0821995  
C        C      0.627900000000     0.092500000000     0.528800000000     0.0821995  
C        C      0.731100000000     0.138700000000     0.564300000000     0.0821995  
C        C      0.724000000000     0.172500000000     0.638300000000     0.0821995  
C        C      0.862300000000     0.144600000000     0.529800000000     0.0821995  
C        C      0.867800000000     0.100000000000     0.465500000000     0.0821995  
C        C      0.231000000000     0.049300000000     0.245900000000     0.0821995  
C        C      0.364900000000     0.918900000000     0.254700000000     0.0821995  
C        C      0.866000000000     0.791800000000     0.247100000000     0.0821995  
C        C      0.243000000000     0.969000000000     0.255800000000     0.0821995  
C        C      0.208200000000     0.526700000000     0.869400000000     0.0821995  
C        C      0.230800000000     0.566300000000     0.938000000000     0.0821995  
C        C      0.126400000000     0.595600000000     0.968800000000     0.0821995  
C        C      0.144300000000     0.643000000000     0.034500000000     0.0821995  
C        C      0.265700000000     0.638700000000     0.067200000000     0.0821995  
C        C      0.278500000000     0.669100000000     0.144300000000     0.0821995  
C        C      0.371300000000     0.580000000000     0.033400000000     0.0821995  
C        C      0.356000000000     0.564300000000     0.963100000000     0.0821995  
C        C      0.207700000000     0.524800000000     0.643300000000     0.0821995  
C        C      0.243600000000     0.564900000000     0.565900000000     0.0821995  
C        C      0.352900000000     0.567500000000     0.537000000000     0.0821995  
C        C      0.372100000000     0.592500000000     0.471200000000     0.0821995  
C        C      0.268900000000     0.638700000000     0.435700000000     0.0821995  
C        C      0.276000000000     0.672500000000     0.361700000000     0.0821995  
C        C      0.137700000000     0.644600000000     0.470200000000     0.0821995  
C        C      0.132200000000     0.600000000000     0.534500000000     0.0821995  
C        C      0.769000000000     0.549300000000     0.754100000000     0.0821995  
C        C      0.635100000000     0.418900000000     0.745300000000     0.0821995  
C        C      0.134000000000     0.291800000000     0.752900000000     0.0821995  
C        C      0.757000000000     0.469000000000     0.744200000000     0.0821995  
N        N      0.131700000000     0.914400000000     0.245800000000    -0.162448   
N        N      0.626400000000     0.782500000000     0.253300000000    -0.162448   
N        N      0.868300000000     0.414400000000     0.754200000000    -0.162448   
N        N      0.373600000000     0.282500000000     0.746700000000    -0.162448   
O        O      0.896500000000     0.031600000000     0.162100000000    -0.29363    
O        O      0.689800000000     0.987900000000     0.164800000000    -0.29363    
O        O      0.605900000000     0.163300000000     0.835700000000    -0.29363    
O        O      0.816900000000     0.210700000000     0.837000000000    -0.29363    
O        O      0.895100000000     0.036000000000     0.334300000000    -0.29363    
O        O      0.691400000000     0.987300000000     0.332800000000    -0.29363    
O        O      0.604900000000     0.168600000000     0.663300000000    -0.29363    
O        O      0.814800000000     0.212000000000     0.661900000000    -0.29363    
O        O      0.111700000000     0.102200000000     0.244900000000    -0.29363    
O        O      0.356900000000     0.833400000000     0.249900000000    -0.29363    
O        O      0.463700000000     0.961500000000     0.253200000000    -0.29363    
O        O      0.971000000000     0.739800000000     0.249400000000    -0.29363    
O        O      0.853000000000     0.871000000000     0.250400000000    -0.29363    
O        O      0.103500000000     0.531600000000     0.837900000000    -0.29363    
O        O      0.310200000000     0.487900000000     0.835200000000    -0.29363    
O        O      0.394100000000     0.663300000000     0.164300000000    -0.29363    
O        O      0.183100000000     0.710700000000     0.163000000000    -0.29363    
O        O      0.104900000000     0.536000000000     0.665700000000    -0.29363    
O        O      0.308600000000     0.487300000000     0.667200000000    -0.29363    
O        O      0.395100000000     0.668600000000     0.336700000000    -0.29363    
O        O      0.185200000000     0.712000000000     0.338100000000    -0.29363    
O        O      0.888300000000     0.602200000000     0.755100000000    -0.29363    
O        O      0.643100000000     0.333400000000     0.750100000000    -0.29363    
O        O      0.536300000000     0.461500000000     0.746800000000    -0.29363    
O        O      0.029000000000     0.239800000000     0.750600000000    -0.29363    
O        O      0.147000000000     0.371000000000     0.749600000000    -0.29363    


