data_RAPYOY_original

_audit_creation_method RASPA-1.0
_audit_creation_date 2022-1-31
_audit_author_name 'Felipe Lopes de Oliveira <felipe.lopes.oliveira@ibm.com>'

_cell_length_a    10.3246
_cell_length_b    14.332
_cell_length_c    19.293
_cell_angle_alpha 90
_cell_angle_beta  90.114
_cell_angle_gamma 90
_cell_volume      2854.82

_symmetry_cell_setting          triclinic
_symmetry_space_group_name_Hall 'P 1'
_symmetry_space_group_name_H-M  'P 1'
_symmetry_Int_Tables_number     1

_symmetry_equiv_pos_as_xyz 'x,y,z'

loop_
_atom_site_label
_atom_site_type_symbol
_atom_site_fract_x
_atom_site_fract_y
_atom_site_fract_z
_atom_site_charge
Zn       Zn     0.155120000000     0.418900000000     0.746300000000     0.481071   
Zn       Zn     0.469820000000     0.488280000000     0.747260000000     0.481071   
Zn       Zn     0.655380000000     0.282880000000     0.753740000000     0.481071   
Zn       Zn     0.970220000000     0.212990000000     0.752590000000     0.481071   
Zn       Zn     0.844880000000     0.918900000000     0.253700000000     0.481071   
Zn       Zn     0.530180000000     0.988280000000     0.252740000000     0.481071   
Zn       Zn     0.344620000000     0.782880000000     0.246260000000     0.481071   
Zn       Zn     0.029780000000     0.712990000000     0.247410000000     0.481071   
H        H      0.237700000000     0.208400000000     0.822900000000     0.0625811  
H        H      0.311800000000     0.107100000000     0.729800000000     0.0625811  
H        H      0.227800000000     0.167200000000     0.677100000000     0.0625811  
H        H      0.738900000000     0.482300000000     0.680100000000     0.0625811  
H        H      0.805000000000     0.601100000000     0.748300000000     0.0625811  
H        H      0.743400000000     0.554000000000     0.814400000000     0.0625811  
H        H      0.459600000000     0.611700000000     0.548200000000     0.0625811  
H        H      0.428800000000     0.659100000000     0.434700000000     0.0625811  
H        H      0.052000000000     0.607100000000     0.446900000000     0.0625811  
H        H      0.079300000000     0.526200000000     0.551800000000     0.0625811  
H        H      0.577300000000     0.161400000000     0.943200000000     0.0625811  
H        H      0.952400000000     0.102700000000     0.952100000000     0.0625811  
H        H      0.928700000000     0.030300000000     0.062400000000     0.0625811  
H        H      0.547000000000     0.106100000000     0.056700000000     0.0625811  
H        H      0.762300000000     0.708400000000     0.177100000000     0.0625811  
H        H      0.688200000000     0.607100000000     0.270200000000     0.0625811  
H        H      0.772200000000     0.667200000000     0.322900000000     0.0625811  
H        H      0.261100000000     0.982300000000     0.319900000000     0.0625811  
H        H      0.195000000000     0.101100000000     0.251700000000     0.0625811  
H        H      0.256600000000     0.054000000000     0.185600000000     0.0625811  
H        H      0.540400000000     0.111700000000     0.451800000000     0.0625811  
H        H      0.571200000000     0.159100000000     0.565300000000     0.0625811  
H        H      0.948000000000     0.107100000000     0.553100000000     0.0625811  
H        H      0.920700000000     0.026200000000     0.448200000000     0.0625811  
H        H      0.422700000000     0.661400000000     0.056800000000     0.0625811  
H        H      0.047600000000     0.602700000000     0.047900000000     0.0625811  
H        H      0.071300000000     0.530300000000     0.937600000000     0.0625811  
H        H      0.453000000000     0.606100000000     0.943300000000     0.0625811  
C        C      0.366200000000     0.281300000000     0.756200000000     0.0674843  
C        C      0.240300000000     0.228300000000     0.774300000000     0.0674843  
C        C      0.236900000000     0.147500000000     0.724900000000     0.0674843  
C        C      0.867900000000     0.416700000000     0.744100000000     0.0674843  
C        C      0.740700000000     0.469600000000     0.730000000000     0.0674843  
C        C      0.735700000000     0.561000000000     0.764600000000     0.0674843  
C        C      0.286900000000     0.524600000000     0.632800000000     0.0674843  
C        C      0.266900000000     0.560900000000     0.562400000000     0.0674843  
C        C      0.379600000000     0.605300000000     0.526500000000     0.0674843  
C        C      0.359200000000     0.636200000000     0.460100000000     0.0674843  
C        C      0.233800000000     0.634000000000     0.429000000000     0.0674843  
C        C      0.134800000000     0.601000000000     0.465400000000     0.0674843  
C        C      0.148500000000     0.556800000000     0.531000000000     0.0674843  
C        C      0.781700000000     0.169100000000     0.641700000000     0.0674843  
C        C      0.280000000000     0.523500000000     0.859600000000     0.0674843  
C        C      0.647300000000     0.137600000000     0.968000000000     0.0674843  
C        C      0.770100000000     0.136400000000     0.937200000000     0.0674843  
C        C      0.870900000000     0.100600000000     0.972400000000     0.0674843  
C        C      0.859000000000     0.059000000000     0.040500000000     0.0674843  
C        C      0.787600000000     0.172100000000     0.866000000000     0.0674843  
C        C      0.627900000000     0.103500000000     0.035600000000     0.0674843  
C        C      0.261100000000     0.564300000000     0.928900000000     0.0674843  
C        C      0.633800000000     0.781300000000     0.243800000000     0.0674843  
C        C      0.759700000000     0.728300000000     0.225700000000     0.0674843  
C        C      0.763100000000     0.647500000000     0.275100000000     0.0674843  
C        C      0.132100000000     0.916700000000     0.255900000000     0.0674843  
C        C      0.259300000000     0.969600000000     0.270000000000     0.0674843  
C        C      0.264300000000     0.061000000000     0.235400000000     0.0674843  
C        C      0.713100000000     0.024600000000     0.367200000000     0.0674843  
C        C      0.733100000000     0.060900000000     0.437600000000     0.0674843  
C        C      0.620400000000     0.105300000000     0.473500000000     0.0674843  
C        C      0.640800000000     0.136200000000     0.539900000000     0.0674843  
C        C      0.766200000000     0.134000000000     0.571000000000     0.0674843  
C        C      0.865200000000     0.101000000000     0.534600000000     0.0674843  
C        C      0.851500000000     0.056800000000     0.469000000000     0.0674843  
C        C      0.218300000000     0.669100000000     0.358300000000     0.0674843  
C        C      0.720000000000     0.023500000000     0.140400000000     0.0674843  
C        C      0.352700000000     0.637600000000     0.032000000000     0.0674843  
C        C      0.229900000000     0.636400000000     0.062800000000     0.0674843  
C        C      0.129100000000     0.600600000000     0.027600000000     0.0674843  
C        C      0.141000000000     0.559000000000     0.959500000000     0.0674843  
C        C      0.212400000000     0.672100000000     0.134000000000     0.0674843  
C        C      0.372100000000     0.603500000000     0.964400000000     0.0674843  
C        C      0.738900000000     0.064300000000     0.071100000000     0.0674843  
N        N      0.130600000000     0.281700000000     0.755200000000    -0.155902   
N        N      0.627900000000     0.413100000000     0.744300000000    -0.155902   
N        N      0.869400000000     0.781700000000     0.244800000000    -0.155902   
N        N      0.372100000000     0.913100000000     0.255700000000    -0.155902   
O        O      0.353400000000     0.370400000000     0.747900000000    -0.283805   
O        O      0.466100000000     0.238300000000     0.762100000000    -0.283805   
O        O      0.853300000000     0.333200000000     0.752300000000    -0.283805   
O        O      0.969100000000     0.460400000000     0.739200000000    -0.283805   
O        O      0.398100000000     0.532800000000     0.660900000000    -0.283805   
O        O      0.189600000000     0.486100000000     0.658600000000    -0.283805   
O        O      0.684400000000     0.209800000000     0.669700000000    -0.283805   
O        O      0.891300000000     0.163600000000     0.666400000000    -0.283805   
O        O      0.391200000000     0.533000000000     0.834400000000    -0.283805   
O        O      0.185900000000     0.490800000000     0.831200000000    -0.283805   
O        O      0.687700000000     0.214200000000     0.841500000000    -0.283805   
O        O      0.899200000000     0.166300000000     0.839700000000    -0.283805   
O        O      0.106600000000     0.100600000000     0.754700000000    -0.283805   
O        O      0.610200000000     0.599400000000     0.746100000000    -0.283805   
O        O      0.646600000000     0.870400000000     0.252100000000    -0.283805   
O        O      0.533900000000     0.738300000000     0.237900000000    -0.283805   
O        O      0.146700000000     0.833200000000     0.247700000000    -0.283805   
O        O      0.030900000000     0.960400000000     0.260800000000    -0.283805   
O        O      0.601900000000     0.032800000000     0.339100000000    -0.283805   
O        O      0.810400000000     0.986100000000     0.341400000000    -0.283805   
O        O      0.315600000000     0.709800000000     0.330300000000    -0.283805   
O        O      0.108700000000     0.663600000000     0.333600000000    -0.283805   
O        O      0.608800000000     0.033000000000     0.165600000000    -0.283805   
O        O      0.814100000000     0.990800000000     0.168800000000    -0.283805   
O        O      0.312300000000     0.714200000000     0.158500000000    -0.283805   
O        O      0.100800000000     0.666300000000     0.160300000000    -0.283805   
O        O      0.893400000000     0.600600000000     0.245300000000    -0.283805   
O        O      0.389800000000     0.099400000000     0.253900000000    -0.283805   


