data_RAQVEM_original

_audit_creation_method RASPA-1.0
_audit_creation_date 2022-1-29
_audit_author_name 'Felipe Lopes de Oliveira <felipe.lopes.oliveira@ibm.com>'

_cell_length_a    9.81
_cell_length_b    18.571
_cell_length_c    20.2309
_cell_angle_alpha 80.7648
_cell_angle_beta  75.9687
_cell_angle_gamma 74.6852
_cell_volume      3430.38

_symmetry_cell_setting          triclinic
_symmetry_space_group_name_Hall 'P 1'
_symmetry_space_group_name_H-M  'P 1'
_symmetry_Int_Tables_number     1

_symmetry_equiv_pos_as_xyz 'x,y,z'

loop_
_atom_site_label
_atom_site_type_symbol
_atom_site_fract_x
_atom_site_fract_y
_atom_site_fract_z
_atom_site_charge
Zn       Zn     0.662140000000     0.599890000000     0.821010000000     0.39778    
Zn       Zn     0.083040000000     0.900110000000     0.678990000000     0.39778    
Zn       Zn     0.337860000000     0.400110000000     0.178990000000     0.39778    
Zn       Zn     0.916960000000     0.099890000000     0.321010000000     0.39778    
Zn       Zn     0.008890000000     0.750000000000     0.250000000000     0.39778    
Zn       Zn     0.991110000000     0.250000000000     0.750000000000     0.39778    
H        H      0.166600000000     0.237000000000     0.888200000000     0.0593419  
H        H      0.900600000000     0.549100000000     0.199300000000     0.0593419  
H        H      0.892700000000     0.421600000000     0.207400000000     0.0593419  
H        H      0.741400000000     0.472800000000     0.236000000000     0.0593419  
H        H      0.787100000000     0.363700000000     0.313100000000     0.0593419  
H        H      0.929800000000     0.382300000000     0.320100000000     0.0593419  
H        H      0.747600000000     0.419000000000     0.414200000000     0.0593419  
H        H      0.649000000000     0.469700000000     0.365700000000     0.0593419  
H        H      0.909000000000     0.496300000000     0.383100000000     0.0593419  
H        H      0.754100000000     0.546800000000     0.407000000000     0.0593419  
H        H      0.731100000000     0.583200000000     0.294600000000     0.0593419  
H        H      0.426400000000     0.558400000000     0.936600000000     0.0593419  
H        H      0.283200000000     0.475500000000     0.967500000000     0.0593419  
H        H      0.487100000000     0.381100000000     0.795100000000     0.0593419  
H        H      0.629600000000     0.464300000000     0.770900000000     0.0593419  
H        H      0.018500000000     0.183400000000     0.976600000000     0.0593419  
H        H      0.842800000000     0.146900000000     0.063500000000     0.0593419  
H        H      0.782500000000     0.324600000000     0.153600000000     0.0593419  
H        H      0.957700000000     0.367200000000     0.071200000000     0.0593419  
H        H      0.134800000000     0.651700000000     0.140300000000     0.0593419  
H        H      0.304300000000     0.639300000000     0.040700000000     0.0593419  
H        H      0.438000000000     0.811800000000     0.078400000000     0.0593419  
H        H      0.258100000000     0.822100000000     0.175700000000     0.0593419  
H        H      0.762100000000     0.851900000000     0.906700000000     0.0593419  
H        H      0.919100000000     0.910100000000     0.828900000000     0.0593419  
H        H      0.995300000000     0.757500000000     0.703900000000     0.0593419  
H        H      0.836000000000     0.696300000000     0.779100000000     0.0593419  
H        H      0.291800000000     0.263000000000     0.611800000000     0.0593419  
H        H      0.649000000000     0.950900000000     0.300700000000     0.0593419  
H        H      0.521700000000     0.078400000000     0.292600000000     0.0593419  
H        H      0.450200000000     0.027200000000     0.264000000000     0.0593419  
H        H      0.463900000000     0.136300000000     0.186900000000     0.0593419  
H        H      0.632200000000     0.117700000000     0.179900000000     0.0593419  
H        H      0.580800000000     0.081000000000     0.085800000000     0.0593419  
H        H      0.484400000000     0.030300000000     0.134300000000     0.0593419  
H        H      0.788400000000     0.003700000000     0.116900000000     0.0593419  
H        H      0.707900000000     0.953200000000     0.093000000000     0.0593419  
H        H      0.608900000000     0.916800000000     0.205400000000     0.0593419  
H        H      0.921400000000     0.941600000000     0.563400000000     0.0593419  
H        H      0.726200000000     0.024500000000     0.532500000000     0.0593419  
H        H      0.663300000000     0.118900000000     0.704900000000     0.0593419  
H        H      0.864800000000     0.035700000000     0.729100000000     0.0593419  
H        H      0.178500000000     0.316600000000     0.523400000000     0.0593419  
H        H      0.053200000000     0.353100000000     0.436500000000     0.0593419  
H        H      0.260700000000     0.175400000000     0.346400000000     0.0593419  
H        H      0.396100000000     0.132800000000     0.428800000000     0.0593419  
H        H      0.926800000000     0.848300000000     0.359700000000     0.0593419  
H        H      0.984300000000     0.860700000000     0.459300000000     0.0593419  
H        H      0.328200000000     0.688200000000     0.421600000000     0.0593419  
H        H      0.255900000000     0.677900000000     0.324300000000     0.0593419  
H        H      0.520700000000     0.648100000000     0.593300000000     0.0593419  
H        H      0.658100000000     0.589900000000     0.671100000000     0.0593419  
H        H      0.456700000000     0.742500000000     0.796100000000     0.0593419  
H        H      0.311400000000     0.803700000000     0.720900000000     0.0593419  
H        H      0.833400000000     0.763000000000     0.111800000000     0.0593419  
H        H      0.099400000000     0.450900000000     0.800700000000     0.0593419  
H        H      0.107300000000     0.578400000000     0.792600000000     0.0593419  
H        H      0.258600000000     0.527200000000     0.764000000000     0.0593419  
H        H      0.212900000000     0.636300000000     0.686900000000     0.0593419  
H        H      0.070200000000     0.617700000000     0.679900000000     0.0593419  
H        H      0.252400000000     0.581000000000     0.585800000000     0.0593419  
H        H      0.351000000000     0.530300000000     0.634300000000     0.0593419  
H        H      0.091000000000     0.503700000000     0.616900000000     0.0593419  
H        H      0.245900000000     0.453200000000     0.593000000000     0.0593419  
H        H      0.268900000000     0.416800000000     0.705400000000     0.0593419  
H        H      0.573600000000     0.441600000000     0.063400000000     0.0593419  
H        H      0.716800000000     0.524500000000     0.032500000000     0.0593419  
H        H      0.512900000000     0.618900000000     0.204900000000     0.0593419  
H        H      0.370400000000     0.535700000000     0.229100000000     0.0593419  
H        H      0.981500000000     0.816600000000     0.023400000000     0.0593419  
H        H      0.157200000000     0.853100000000     0.936500000000     0.0593419  
H        H      0.217500000000     0.675400000000     0.846400000000     0.0593419  
H        H      0.042300000000     0.632800000000     0.928800000000     0.0593419  
H        H      0.865200000000     0.348300000000     0.859700000000     0.0593419  
H        H      0.695700000000     0.360700000000     0.959300000000     0.0593419  
H        H      0.562000000000     0.188200000000     0.921600000000     0.0593419  
H        H      0.741900000000     0.177900000000     0.824300000000     0.0593419  
H        H      0.237900000000     0.148100000000     0.093300000000     0.0593419  
H        H      0.080900000000     0.089900000000     0.171100000000     0.0593419  
H        H      0.004700000000     0.242500000000     0.296100000000     0.0593419  
H        H      0.164000000000     0.303700000000     0.220900000000     0.0593419  
H        H      0.708200000000     0.737000000000     0.388200000000     0.0593419  
H        H      0.351000000000     0.049100000000     0.699300000000     0.0593419  
H        H      0.478300000000     0.921600000000     0.707400000000     0.0593419  
H        H      0.549800000000     0.972800000000     0.736000000000     0.0593419  
H        H      0.536100000000     0.863700000000     0.813100000000     0.0593419  
H        H      0.367800000000     0.882300000000     0.820100000000     0.0593419  
H        H      0.419200000000     0.919000000000     0.914200000000     0.0593419  
H        H      0.515600000000     0.969700000000     0.865700000000     0.0593419  
H        H      0.211600000000     0.996300000000     0.883100000000     0.0593419  
H        H      0.292100000000     0.046800000000     0.907000000000     0.0593419  
H        H      0.391100000000     0.083200000000     0.794600000000     0.0593419  
H        H      0.078600000000     0.058400000000     0.436600000000     0.0593419  
H        H      0.273800000000     0.975500000000     0.467500000000     0.0593419  
H        H      0.336700000000     0.881100000000     0.295100000000     0.0593419  
H        H      0.135200000000     0.964300000000     0.270900000000     0.0593419  
H        H      0.821500000000     0.683400000000     0.476600000000     0.0593419  
H        H      0.946800000000     0.646900000000     0.563500000000     0.0593419  
H        H      0.739300000000     0.824600000000     0.653600000000     0.0593419  
H        H      0.603900000000     0.867200000000     0.571200000000     0.0593419  
H        H      0.073200000000     0.151700000000     0.640300000000     0.0593419  
H        H      0.015700000000     0.139300000000     0.540700000000     0.0593419  
H        H      0.671800000000     0.311800000000     0.578400000000     0.0593419  
H        H      0.744100000000     0.322100000000     0.675700000000     0.0593419  
H        H      0.479300000000     0.351900000000     0.406700000000     0.0593419  
H        H      0.341900000000     0.410100000000     0.328900000000     0.0593419  
H        H      0.543300000000     0.257500000000     0.203900000000     0.0593419  
H        H      0.688600000000     0.196300000000     0.279100000000     0.0593419  
C        C      0.069300000000     0.486900000000     0.241100000000     0.0105836  
C        C      0.910000000000     0.516600000000     0.242000000000     0.0105836  
C        C      0.838500000000     0.452600000000     0.243800000000     0.0105836  
C        C      0.832400000000     0.404200000000     0.313200000000     0.0105836  
C        C      0.748200000000     0.450500000000     0.370900000000     0.0105836  
C        C      0.814600000000     0.515600000000     0.371800000000     0.0105836  
C        C      0.830100000000     0.563900000000     0.301900000000     0.0105836  
C        C      0.882400000000     0.631500000000     0.302300000000     0.0105836  
C        C      0.438300000000     0.522000000000     0.907800000000     0.0105836  
C        C      0.351600000000     0.472400000000     0.926600000000     0.0105836  
C        C      0.365600000000     0.417400000000     0.884600000000     0.0105836  
C        C      0.472800000000     0.416600000000     0.825200000000     0.0105836  
C        C      0.557000000000     0.467200000000     0.810400000000     0.0105836  
C        C      0.275500000000     0.364100000000     0.904100000000     0.0105836  
C        C      0.121300000000     0.306900000000     0.960100000000     0.0105836  
C        C      0.008100000000     0.280200000000     0.014200000000     0.0105836  
C        C      0.972700000000     0.213000000000     0.012200000000     0.0105836  
C        C      0.866600000000     0.191800000000     0.065000000000     0.0105836  
C        C      0.831500000000     0.295500000000     0.117900000000     0.0105836  
C        C      0.936200000000     0.322200000000     0.068200000000     0.0105836  
C        C      0.195400000000     0.684800000000     0.127400000000     0.0105836  
C        C      0.297300000000     0.676900000000     0.067500000000     0.0105836  
C        C      0.389400000000     0.725000000000     0.046800000000     0.0105836  
C        C      0.376100000000     0.779400000000     0.089400000000     0.0105836  
C        C      0.268600000000     0.784400000000     0.148400000000     0.0105836  
C        C      0.500200000000     0.718500000000     0.982900000000     0.0105836  
C        C      0.666100000000     0.734800000000     0.899200000000     0.0105836  
C        C      0.776100000000     0.768100000000     0.851500000000     0.0105836  
C        C      0.806800000000     0.832100000000     0.865300000000     0.0105836  
C        C      0.902200000000     0.866700000000     0.818500000000     0.0105836  
C        C      0.946800000000     0.777300000000     0.744900000000     0.0105836  
C        C      0.850500000000     0.740100000000     0.790100000000     0.0105836  
C        C      0.797300000000     0.013100000000     0.258900000000     0.0105836  
C        C      0.668600000000     0.983400000000     0.258000000000     0.0105836  
C        C      0.534900000000     0.047400000000     0.256200000000     0.0105836  
C        C      0.549800000000     0.095800000000     0.186800000000     0.0105836  
C        C      0.569600000000     0.049500000000     0.129100000000     0.0105836  
C        C      0.702000000000     0.984400000000     0.128200000000     0.0105836  
C        C      0.695900000000     0.936100000000     0.198100000000     0.0105836  
C        C      0.816200000000     0.868500000000     0.197700000000     0.0105836  
C        C      0.868100000000     0.978000000000     0.592200000000     0.0105836  
C        C      0.750600000000     0.027600000000     0.573400000000     0.0105836  
C        C      0.667600000000     0.082600000000     0.615400000000     0.0105836  
C        C      0.714600000000     0.083400000000     0.674800000000     0.0105836  
C        C      0.834600000000     0.032800000000     0.689600000000     0.0105836  
C        C      0.543700000000     0.135900000000     0.595900000000     0.0105836  
C        C      0.388300000000     0.193100000000     0.539900000000     0.0105836  
C        C      0.302500000000     0.219800000000     0.485800000000     0.0105836  
C        C      0.197900000000     0.287000000000     0.487800000000     0.0105836  
C        C      0.123400000000     0.308200000000     0.435000000000     0.0105836  
C        C      0.244900000000     0.204500000000     0.382100000000     0.0105836  
C        C      0.326600000000     0.177800000000     0.431800000000     0.0105836  
C        C      0.007600000000     0.815200000000     0.372600000000     0.0105836  
C        C      0.041700000000     0.823100000000     0.432500000000     0.0105836  
C        C      0.161200000000     0.775000000000     0.453200000000     0.0105836  
C        C      0.244900000000     0.720600000000     0.410600000000     0.0105836  
C        C      0.201400000000     0.715600000000     0.351600000000     0.0105836  
C        C      0.201600000000     0.781500000000     0.517100000000     0.0105836  
C        C      0.300100000000     0.765200000000     0.600800000000     0.0105836  
C        C      0.395700000000     0.731900000000     0.648500000000     0.0105836  
C        C      0.504200000000     0.667900000000     0.634700000000     0.0105836  
C        C      0.587400000000     0.633300000000     0.681500000000     0.0105836  
C        C      0.469000000000     0.722700000000     0.755100000000     0.0105836  
C        C      0.380700000000     0.759900000000     0.709900000000     0.0105836  
C        C      0.930700000000     0.513100000000     0.758900000000     0.0105836  
C        C      0.090000000000     0.483400000000     0.758000000000     0.0105836  
C        C      0.161500000000     0.547400000000     0.756200000000     0.0105836  
C        C      0.167600000000     0.595800000000     0.686800000000     0.0105836  
C        C      0.251800000000     0.549500000000     0.629100000000     0.0105836  
C        C      0.185400000000     0.484400000000     0.628200000000     0.0105836  
C        C      0.169900000000     0.436100000000     0.698100000000     0.0105836  
C        C      0.117600000000     0.368500000000     0.697700000000     0.0105836  
C        C      0.561700000000     0.478000000000     0.092200000000     0.0105836  
C        C      0.648400000000     0.527600000000     0.073400000000     0.0105836  
C        C      0.634400000000     0.582600000000     0.115400000000     0.0105836  
C        C      0.527200000000     0.583400000000     0.174800000000     0.0105836  
C        C      0.443000000000     0.532800000000     0.189600000000     0.0105836  
C        C      0.724500000000     0.635900000000     0.095900000000     0.0105836  
C        C      0.878700000000     0.693100000000     0.039900000000     0.0105836  
C        C      0.991900000000     0.719800000000     0.985800000000     0.0105836  
C        C      0.027300000000     0.787000000000     0.987800000000     0.0105836  
C        C      0.133400000000     0.808200000000     0.935000000000     0.0105836  
C        C      0.168500000000     0.704500000000     0.882100000000     0.0105836  
C        C      0.063800000000     0.677800000000     0.931800000000     0.0105836  
C        C      0.804600000000     0.315200000000     0.872600000000     0.0105836  
C        C      0.702700000000     0.323100000000     0.932500000000     0.0105836  
C        C      0.610600000000     0.275000000000     0.953200000000     0.0105836  
C        C      0.623900000000     0.220600000000     0.910600000000     0.0105836  
C        C      0.731400000000     0.215600000000     0.851600000000     0.0105836  
C        C      0.499800000000     0.281500000000     0.017100000000     0.0105836  
C        C      0.333900000000     0.265200000000     0.100800000000     0.0105836  
C        C      0.223900000000     0.231900000000     0.148500000000     0.0105836  
C        C      0.193200000000     0.167900000000     0.134700000000     0.0105836  
C        C      0.097800000000     0.133300000000     0.181500000000     0.0105836  
C        C      0.053200000000     0.222700000000     0.255100000000     0.0105836  
C        C      0.149500000000     0.259900000000     0.209900000000     0.0105836  
C        C      0.202700000000     0.986900000000     0.741100000000     0.0105836  
C        C      0.331400000000     0.016600000000     0.742000000000     0.0105836  
C        C      0.465100000000     0.952600000000     0.743800000000     0.0105836  
C        C      0.450200000000     0.904200000000     0.813200000000     0.0105836  
C        C      0.430400000000     0.950500000000     0.870900000000     0.0105836  
C        C      0.298000000000     0.015600000000     0.871800000000     0.0105836  
C        C      0.304100000000     0.063900000000     0.801900000000     0.0105836  
C        C      0.183800000000     0.131500000000     0.802300000000     0.0105836  
C        C      0.131900000000     0.022000000000     0.407800000000     0.0105836  
C        C      0.249400000000     0.972400000000     0.426600000000     0.0105836  
C        C      0.332400000000     0.917400000000     0.384600000000     0.0105836  
C        C      0.285400000000     0.916600000000     0.325200000000     0.0105836  
C        C      0.165400000000     0.967200000000     0.310400000000     0.0105836  
C        C      0.456300000000     0.864100000000     0.404100000000     0.0105836  
C        C      0.611700000000     0.806900000000     0.460100000000     0.0105836  
C        C      0.697500000000     0.780200000000     0.514200000000     0.0105836  
C        C      0.802100000000     0.713000000000     0.512200000000     0.0105836  
C        C      0.876600000000     0.691800000000     0.565000000000     0.0105836  
C        C      0.755100000000     0.795500000000     0.617900000000     0.0105836  
C        C      0.673400000000     0.822200000000     0.568200000000     0.0105836  
C        C      0.992400000000     0.184800000000     0.627400000000     0.0105836  
C        C      0.958300000000     0.176900000000     0.567500000000     0.0105836  
C        C      0.838800000000     0.225000000000     0.546800000000     0.0105836  
C        C      0.755100000000     0.279400000000     0.589400000000     0.0105836  
C        C      0.798600000000     0.284400000000     0.648400000000     0.0105836  
C        C      0.798400000000     0.218500000000     0.482900000000     0.0105836  
C        C      0.699900000000     0.234800000000     0.399200000000     0.0105836  
C        C      0.604300000000     0.268100000000     0.351500000000     0.0105836  
C        C      0.495800000000     0.332100000000     0.365300000000     0.0105836  
C        C      0.412600000000     0.366700000000     0.318500000000     0.0105836  
C        C      0.531000000000     0.277300000000     0.244900000000     0.0105836  
C        C      0.619300000000     0.240100000000     0.290100000000     0.0105836  
N        N      0.538800000000     0.520800000000     0.850600000000    -0.140217   
N        N      0.172200000000     0.365100000000     0.962900000000    -0.140217   
N        N      0.188300000000     0.273700000000     0.903900000000    -0.140217   
N        N      0.288200000000     0.309800000000     0.866600000000    -0.140217   
N        N      0.796400000000     0.231000000000     0.117800000000    -0.140217   
N        N      0.179200000000     0.738100000000     0.168500000000    -0.140217   
N        N      0.590100000000     0.764400000000     0.957800000000    -0.140217   
N        N      0.514700000000     0.662700000000     0.944700000000    -0.140217   
N        N      0.623700000000     0.674400000000     0.889400000000    -0.140217   
N        N      0.973000000000     0.840100000000     0.757900000000    -0.140217   
N        N      0.910200000000     0.979200000000     0.649400000000    -0.140217   
N        N      0.500200000000     0.134900000000     0.537100000000    -0.140217   
N        N      0.365900000000     0.226300000000     0.596100000000    -0.140217   
N        N      0.464600000000     0.190200000000     0.633400000000    -0.140217   
N        N      0.145200000000     0.269000000000     0.382200000000    -0.140217   
N        N      0.085800000000     0.761900000000     0.331500000000    -0.140217   
N        N      0.312300000000     0.735600000000     0.542200000000    -0.140217   
N        N      0.122100000000     0.837300000000     0.555300000000    -0.140217   
N        N      0.187500000000     0.825600000000     0.610600000000    -0.140217   
N        N      0.571000000000     0.659900000000     0.742100000000    -0.140217   
N        N      0.461200000000     0.479200000000     0.149400000000    -0.140217   
N        N      0.827800000000     0.634900000000     0.037100000000    -0.140217   
N        N      0.811700000000     0.726300000000     0.096100000000    -0.140217   
N        N      0.711800000000     0.690200000000     0.133400000000    -0.140217   
N        N      0.203600000000     0.769000000000     0.882200000000    -0.140217   
N        N      0.820800000000     0.261900000000     0.831500000000    -0.140217   
N        N      0.409900000000     0.235600000000     0.042200000000    -0.140217   
N        N      0.485300000000     0.337300000000     0.055300000000    -0.140217   
N        N      0.376300000000     0.325600000000     0.110600000000    -0.140217   
N        N      0.027000000000     0.159900000000     0.242100000000    -0.140217   
N        N      0.089800000000     0.020800000000     0.350600000000    -0.140217   
N        N      0.499800000000     0.865100000000     0.462900000000    -0.140217   
N        N      0.634100000000     0.773700000000     0.403900000000    -0.140217   
N        N      0.535400000000     0.809800000000     0.366600000000    -0.140217   
N        N      0.854800000000     0.731000000000     0.617800000000    -0.140217   
N        N      0.914200000000     0.238100000000     0.668500000000    -0.140217   
N        N      0.687700000000     0.264400000000     0.457800000000    -0.140217   
N        N      0.877900000000     0.162700000000     0.444700000000    -0.140217   
N        N      0.812500000000     0.174400000000     0.389400000000    -0.140217   
N        N      0.429000000000     0.340100000000     0.257900000000    -0.140217   
O        O      0.136400000000     0.447800000000     0.190600000000    -0.283851   
O        O      0.131200000000     0.497300000000     0.282500000000    -0.283851   
O        O      0.950830000000     0.658840000000     0.244900000000    -0.283851   
O        O      0.859300000000     0.662300000000     0.355700000000    -0.283851   
O        O      0.774800000000     0.052200000000     0.309400000000    -0.283851   
O        O      0.911000000000     0.002700000000     0.217500000000    -0.283851   
O        O      0.854570000000     0.841160000000     0.255100000000    -0.283851   
O        O      0.877300000000     0.837700000000     0.144300000000    -0.283851   
O        O      0.863600000000     0.552200000000     0.809400000000    -0.283851   
O        O      0.868800000000     0.502700000000     0.717500000000    -0.283851   
O        O      0.049170000000     0.341160000000     0.755100000000    -0.283851   
O        O      0.140700000000     0.337700000000     0.644300000000    -0.283851   
O        O      0.225200000000     0.947800000000     0.690600000000    -0.283851   
O        O      0.089000000000     0.997300000000     0.782500000000    -0.283851   
O        O      0.145430000000     0.158840000000     0.744900000000    -0.283851   
O        O      0.122700000000     0.162300000000     0.855700000000    -0.283851   


