data_RATCUL03_original

_audit_creation_method RASPA-1.0
_audit_creation_date 2022-1-28
_audit_author_name 'Felipe Lopes de Oliveira <felipe.lopes.oliveira@ibm.com>'

_cell_length_a    10.006
_cell_length_b    11.4809
_cell_length_c    14.6466
_cell_angle_alpha 91.206
_cell_angle_beta  90
_cell_angle_gamma 90
_cell_volume      1682.2

_symmetry_cell_setting          triclinic
_symmetry_space_group_name_Hall 'P 1'
_symmetry_space_group_name_H-M  'P 1'
_symmetry_Int_Tables_number     1

_symmetry_equiv_pos_as_xyz 'x,y,z'

loop_
_atom_site_label
_atom_site_type_symbol
_atom_site_fract_x
_atom_site_fract_y
_atom_site_fract_z
_atom_site_charge
Fe       Fe     0.923110000000     0.755230000000     0.132780000000     0.925517   
Fe       Fe     0.887230000000     0.259660000000     0.688760000000     0.925517   
Fe       Fe     0.423110000000     0.744770000000     0.367220000000     0.925517   
Fe       Fe     0.387230000000     0.240340000000     0.811240000000     0.925517   
Fe       Fe     0.076890000000     0.244770000000     0.867220000000     0.925517   
Fe       Fe     0.112770000000     0.740340000000     0.311240000000     0.925517   
Fe       Fe     0.576890000000     0.255230000000     0.632780000000     0.925517   
Fe       Fe     0.612770000000     0.759660000000     0.188760000000     0.925517   
Fe       Fe     0.000000000000     0.500000000000     0.000000000000     0.925517   
Fe       Fe     0.500000000000     0.000000000000     0.500000000000     0.925517   
Fe       Fe     0.000000000000     0.000000000000     0.000000000000     0.925517   
Fe       Fe     0.500000000000     0.500000000000     0.500000000000     0.925517   
H        H      0.760000000000     0.855400000000     0.367400000000    -0.102664   
H        H      0.033000000000     0.479200000000     0.262200000000    -0.102664   
H        H      0.618000000000     0.567400000000     0.044400000000    -0.102664   
H        H      0.199000000000     0.977900000000     0.231900000000    -0.102664   
H        H      0.148000000000     0.696500000000     0.925500000000    -0.102664   
H        H      0.707000000000     0.990900000000     0.009900000000    -0.102664   
H        H      0.260000000000     0.644600000000     0.132600000000    -0.102664   
H        H      0.533000000000     0.020800000000     0.237800000000    -0.102664   
H        H      0.118000000000     0.932600000000     0.455600000000    -0.102664   
H        H      0.699000000000     0.522100000000     0.268100000000    -0.102664   
H        H      0.648000000000     0.803500000000     0.574500000000    -0.102664   
H        H      0.207000000000     0.509100000000     0.490100000000    -0.102664   
H        H      0.240000000000     0.144600000000     0.632600000000    -0.102664   
H        H      0.967000000000     0.520800000000     0.737800000000    -0.102664   
H        H      0.382000000000     0.432600000000     0.955600000000    -0.102664   
H        H      0.801000000000     0.022100000000     0.768100000000    -0.102664   
H        H      0.852000000000     0.303500000000     0.074500000000    -0.102664   
H        H      0.293000000000     0.009100000000     0.990100000000    -0.102664   
H        H      0.740000000000     0.355400000000     0.867400000000    -0.102664   
H        H      0.467000000000     0.979200000000     0.762200000000    -0.102664   
H        H      0.882000000000     0.067400000000     0.544400000000    -0.102664   
H        H      0.301000000000     0.477900000000     0.731900000000    -0.102664   
H        H      0.352000000000     0.196500000000     0.425500000000    -0.102664   
H        H      0.793000000000     0.490900000000     0.509900000000    -0.102664   
C        C      0.831100000000     0.826510000000     0.331010000000     0.503514   
C        C      0.018200000000     0.519040000000     0.210240000000     0.503514   
C        C      0.714500000000     0.576320000000     0.047620000000     0.503514   
C        C      0.131400000000     0.952070000000     0.185370000000     0.503514   
C        C      0.100600000000     0.744160000000     0.967160000000     0.503514   
C        C      0.724100000000     0.928770000000     0.052670000000     0.503514   
C        C      0.331100000000     0.673490000000     0.168990000000     0.503514   
C        C      0.518200000000     0.980960000000     0.289760000000     0.503514   
C        C      0.214500000000     0.923680000000     0.452380000000     0.503514   
C        C      0.631400000000     0.547930000000     0.314630000000     0.503514   
C        C      0.600600000000     0.755840000000     0.532840000000     0.503514   
C        C      0.224100000000     0.571230000000     0.447330000000     0.503514   
C        C      0.168900000000     0.173490000000     0.668990000000     0.503514   
C        C      0.981800000000     0.480960000000     0.789760000000     0.503514   
C        C      0.285500000000     0.423680000000     0.952380000000     0.503514   
C        C      0.868600000000     0.047930000000     0.814630000000     0.503514   
C        C      0.899400000000     0.255840000000     0.032840000000     0.503514   
C        C      0.275900000000     0.071230000000     0.947330000000     0.503514   
C        C      0.668900000000     0.326510000000     0.831010000000     0.503514   
C        C      0.481800000000     0.019040000000     0.710240000000     0.503514   
C        C      0.785500000000     0.076320000000     0.547620000000     0.503514   
C        C      0.368600000000     0.452070000000     0.685370000000     0.503514   
C        C      0.399400000000     0.244160000000     0.467160000000     0.503514   
C        C      0.775900000000     0.428770000000     0.552670000000     0.503514   
O        O      0.803100000000     0.804510000000     0.247690000000    -0.431804   
O        O      0.940780000000     0.813740000000     0.367810000000    -0.431804   
O        O      0.009540000000     0.627660000000     0.218170000000    -0.431804   
O        O      0.000630000000     0.460280000000     0.140400000000    -0.431804   
O        O      0.745110000000     0.652430000000     0.107680000000    -0.431804   
O        O      0.791700000000     0.518330000000     0.999630000000    -0.431804   
O        O      0.084890000000     0.850900000000     0.196070000000    -0.431804   
O        O      0.105880000000     0.018040000000     0.123380000000    -0.431804   
O        O      0.027140000000     0.686210000000     0.021690000000    -0.431804   
O        O      0.108240000000     0.849540000000     0.963320000000    -0.431804   
O        O      0.844780000000     0.897460000000     0.061700000000    -0.431804   
O        O      0.626120000000     0.888690000000     0.092860000000    -0.431804   
O        O      0.303100000000     0.695490000000     0.252310000000    -0.431804   
O        O      0.440780000000     0.686260000000     0.132190000000    -0.431804   
O        O      0.509540000000     0.872340000000     0.281830000000    -0.431804   
O        O      0.500630000000     0.039720000000     0.359600000000    -0.431804   
O        O      0.245110000000     0.847570000000     0.392320000000    -0.431804   
O        O      0.291700000000     0.981670000000     0.500370000000    -0.431804   
O        O      0.584890000000     0.649100000000     0.303930000000    -0.431804   
O        O      0.605880000000     0.481960000000     0.376620000000    -0.431804   
O        O      0.527140000000     0.813790000000     0.478310000000    -0.431804   
O        O      0.608240000000     0.650460000000     0.536680000000    -0.431804   
O        O      0.344780000000     0.602540000000     0.438300000000    -0.431804   
O        O      0.126120000000     0.611310000000     0.407140000000    -0.431804   
O        O      0.196900000000     0.195490000000     0.752310000000    -0.431804   
O        O      0.059220000000     0.186260000000     0.632190000000    -0.431804   
O        O      0.990460000000     0.372340000000     0.781830000000    -0.431804   
O        O      0.999370000000     0.539720000000     0.859600000000    -0.431804   
O        O      0.254890000000     0.347570000000     0.892320000000    -0.431804   
O        O      0.208300000000     0.481670000000     0.000370000000    -0.431804   
O        O      0.915110000000     0.149100000000     0.803930000000    -0.431804   
O        O      0.894120000000     0.981960000000     0.876620000000    -0.431804   
O        O      0.972860000000     0.313790000000     0.978310000000    -0.431804   
O        O      0.891760000000     0.150460000000     0.036680000000    -0.431804   
O        O      0.155220000000     0.102540000000     0.938300000000    -0.431804   
O        O      0.373880000000     0.111310000000     0.907140000000    -0.431804   
O        O      0.696900000000     0.304510000000     0.747690000000    -0.431804   
O        O      0.559220000000     0.313740000000     0.867810000000    -0.431804   
O        O      0.490460000000     0.127660000000     0.718170000000    -0.431804   
O        O      0.499370000000     0.960280000000     0.640400000000    -0.431804   
O        O      0.754890000000     0.152430000000     0.607680000000    -0.431804   
O        O      0.708300000000     0.018330000000     0.499630000000    -0.431804   
O        O      0.415110000000     0.350900000000     0.696070000000    -0.431804   
O        O      0.394120000000     0.518040000000     0.623380000000    -0.431804   
O        O      0.472860000000     0.186210000000     0.521690000000    -0.431804   
O        O      0.391760000000     0.349540000000     0.463320000000    -0.431804   
O        O      0.655220000000     0.397460000000     0.561700000000    -0.431804   
O        O      0.873880000000     0.388690000000     0.592860000000    -0.431804   


