data_RATDAS02_original

_audit_creation_method RASPA-1.0
_audit_creation_date 2022-1-30
_audit_author_name 'Felipe Lopes de Oliveira <felipe.lopes.oliveira@ibm.com>'

_cell_length_a    9.8429
_cell_length_b    11.3376
_cell_length_c    14.4693
_cell_angle_alpha 91.3125
_cell_angle_beta  90
_cell_angle_gamma 90
_cell_volume      1614.28

_symmetry_cell_setting          triclinic
_symmetry_space_group_name_Hall 'P 1'
_symmetry_space_group_name_H-M  'P 1'
_symmetry_Int_Tables_number     1

_symmetry_equiv_pos_as_xyz 'x,y,z'

loop_
_atom_site_label
_atom_site_type_symbol
_atom_site_fract_x
_atom_site_fract_y
_atom_site_fract_z
_atom_site_charge
Zn       Zn     0.923000000000     0.756620000000     0.131810000000     0.52702    
Zn       Zn     0.109770000000     0.740910000000     0.312570000000     0.52702    
Zn       Zn     0.423000000000     0.743380000000     0.368190000000     0.52702    
Zn       Zn     0.609770000000     0.759090000000     0.187430000000     0.52702    
Zn       Zn     0.077000000000     0.243380000000     0.868190000000     0.52702    
Zn       Zn     0.890230000000     0.259090000000     0.687430000000     0.52702    
Zn       Zn     0.577000000000     0.256620000000     0.631810000000     0.52702    
Zn       Zn     0.390230000000     0.240910000000     0.812570000000     0.52702    
Zn       Zn     0.000000000000     0.500000000000     0.000000000000     0.52702    
Zn       Zn     0.500000000000     0.000000000000     0.500000000000     0.52702    
Zn       Zn     0.000000000000     0.000000000000     0.000000000000     0.52702    
Zn       Zn     0.500000000000     0.500000000000     0.500000000000     0.52702    
H        H      0.756300000000     0.858700000000     0.367800000000    -0.0502646  
H        H      0.036800000000     0.477700000000     0.265700000000    -0.0502646  
H        H      0.618100000000     0.566000000000     0.036700000000    -0.0502646  
H        H      0.190800000000     0.982600000000     0.232600000000    -0.0502646  
H        H      0.160600000000     0.698300000000     0.927700000000    -0.0502646  
H        H      0.704600000000     0.991200000000     0.010300000000    -0.0502646  
H        H      0.256300000000     0.641300000000     0.132200000000    -0.0502646  
H        H      0.536800000000     0.022300000000     0.234300000000    -0.0502646  
H        H      0.118100000000     0.934000000000     0.463300000000    -0.0502646  
H        H      0.690800000000     0.517400000000     0.267400000000    -0.0502646  
H        H      0.660600000000     0.801700000000     0.572300000000    -0.0502646  
H        H      0.204600000000     0.508800000000     0.489700000000    -0.0502646  
H        H      0.243700000000     0.141300000000     0.632200000000    -0.0502646  
H        H      0.963200000000     0.522300000000     0.734300000000    -0.0502646  
H        H      0.381900000000     0.434000000000     0.963300000000    -0.0502646  
H        H      0.809200000000     0.017400000000     0.767400000000    -0.0502646  
H        H      0.839400000000     0.301700000000     0.072300000000    -0.0502646  
H        H      0.295400000000     0.008800000000     0.989700000000    -0.0502646  
H        H      0.743700000000     0.358700000000     0.867800000000    -0.0502646  
H        H      0.463200000000     0.977700000000     0.765700000000    -0.0502646  
H        H      0.881900000000     0.066000000000     0.536700000000    -0.0502646  
H        H      0.309200000000     0.482600000000     0.732600000000    -0.0502646  
H        H      0.339400000000     0.198300000000     0.427700000000    -0.0502646  
H        H      0.795400000000     0.491200000000     0.510300000000    -0.0502646  
C        C      0.828700000000     0.829560000000     0.330260000000     0.390971   
C        C      0.014900000000     0.519370000000     0.211470000000     0.390971   
C        C      0.712500000000     0.577740000000     0.046840000000     0.390971   
C        C      0.130100000000     0.954650000000     0.185950000000     0.390971   
C        C      0.104900000000     0.742940000000     0.969140000000     0.390971   
C        C      0.721700000000     0.929290000000     0.051890000000     0.390971   
C        C      0.328700000000     0.670440000000     0.169740000000     0.390971   
C        C      0.514900000000     0.980630000000     0.288530000000     0.390971   
C        C      0.212500000000     0.922260000000     0.453160000000     0.390971   
C        C      0.630100000000     0.545350000000     0.314050000000     0.390971   
C        C      0.604900000000     0.757060000000     0.530860000000     0.390971   
C        C      0.221700000000     0.570710000000     0.448110000000     0.390971   
C        C      0.171300000000     0.170440000000     0.669740000000     0.390971   
C        C      0.985100000000     0.480630000000     0.788530000000     0.390971   
C        C      0.287500000000     0.422260000000     0.953160000000     0.390971   
C        C      0.869900000000     0.045350000000     0.814050000000     0.390971   
C        C      0.895100000000     0.257060000000     0.030860000000     0.390971   
C        C      0.278300000000     0.070710000000     0.948110000000     0.390971   
C        C      0.671300000000     0.329560000000     0.830260000000     0.390971   
C        C      0.485100000000     0.019370000000     0.711470000000     0.390971   
C        C      0.787500000000     0.077740000000     0.546840000000     0.390971   
C        C      0.369900000000     0.454650000000     0.685950000000     0.390971   
C        C      0.395100000000     0.242940000000     0.469140000000     0.390971   
C        C      0.778300000000     0.429290000000     0.551890000000     0.390971   
O        O      0.801450000000     0.807330000000     0.245760000000    -0.302108   
O        O      0.940840000000     0.816880000000     0.368740000000    -0.302108   
O        O      0.008140000000     0.630450000000     0.219310000000    -0.302108   
O        O      0.995940000000     0.459580000000     0.140010000000    -0.302108   
O        O      0.745490000000     0.653020000000     0.109860000000    -0.302108   
O        O      0.790840000000     0.518810000000     0.997690000000    -0.302108   
O        O      0.083940000000     0.850950000000     0.195070000000    -0.302108   
O        O      0.104660000000     0.023120000000     0.123200000000    -0.302108   
O        O      0.026940000000     0.684550000000     0.023050000000    -0.302108   
O        O      0.114060000000     0.850680000000     0.966090000000    -0.302108   
O        O      0.845470000000     0.897590000000     0.060990000000    -0.302108   
O        O      0.622040000000     0.887820000000     0.091480000000    -0.302108   
O        O      0.301450000000     0.692670000000     0.254240000000    -0.302108   
O        O      0.440840000000     0.683120000000     0.131260000000    -0.302108   
O        O      0.508140000000     0.869550000000     0.280690000000    -0.302108   
O        O      0.495940000000     0.040420000000     0.359990000000    -0.302108   
O        O      0.245490000000     0.846980000000     0.390140000000    -0.302108   
O        O      0.290840000000     0.981190000000     0.502310000000    -0.302108   
O        O      0.583940000000     0.649050000000     0.304930000000    -0.302108   
O        O      0.604660000000     0.476880000000     0.376800000000    -0.302108   
O        O      0.526940000000     0.815450000000     0.476950000000    -0.302108   
O        O      0.614060000000     0.649320000000     0.533910000000    -0.302108   
O        O      0.345470000000     0.602410000000     0.439010000000    -0.302108   
O        O      0.122040000000     0.612180000000     0.408520000000    -0.302108   
O        O      0.198550000000     0.192670000000     0.754240000000    -0.302108   
O        O      0.059160000000     0.183120000000     0.631260000000    -0.302108   
O        O      0.991860000000     0.369550000000     0.780690000000    -0.302108   
O        O      0.004060000000     0.540420000000     0.859990000000    -0.302108   
O        O      0.254510000000     0.346980000000     0.890140000000    -0.302108   
O        O      0.209160000000     0.481190000000     0.002310000000    -0.302108   
O        O      0.916060000000     0.149050000000     0.804930000000    -0.302108   
O        O      0.895340000000     0.976880000000     0.876800000000    -0.302108   
O        O      0.973060000000     0.315450000000     0.976950000000    -0.302108   
O        O      0.885940000000     0.149320000000     0.033910000000    -0.302108   
O        O      0.154530000000     0.102410000000     0.939010000000    -0.302108   
O        O      0.377960000000     0.112180000000     0.908520000000    -0.302108   
O        O      0.698550000000     0.307330000000     0.745760000000    -0.302108   
O        O      0.559160000000     0.316880000000     0.868740000000    -0.302108   
O        O      0.491860000000     0.130450000000     0.719310000000    -0.302108   
O        O      0.504060000000     0.959580000000     0.640010000000    -0.302108   
O        O      0.754510000000     0.153020000000     0.609860000000    -0.302108   
O        O      0.709160000000     0.018810000000     0.497690000000    -0.302108   
O        O      0.416060000000     0.350950000000     0.695070000000    -0.302108   
O        O      0.395340000000     0.523120000000     0.623200000000    -0.302108   
O        O      0.473060000000     0.184550000000     0.523050000000    -0.302108   
O        O      0.385940000000     0.350680000000     0.466090000000    -0.302108   
O        O      0.654530000000     0.397590000000     0.560990000000    -0.302108   
O        O      0.877960000000     0.387820000000     0.591480000000    -0.302108   


