data_RAXDAX_original

_audit_creation_method RASPA-1.0
_audit_creation_date 2022-1-31
_audit_author_name 'Felipe Lopes de Oliveira <felipe.lopes.oliveira@ibm.com>'

_cell_length_a    9.267
_cell_length_b    13.257
_cell_length_c    16.324
_cell_angle_alpha 90
_cell_angle_beta  94.975
_cell_angle_gamma 90
_cell_volume      1997.89

_symmetry_cell_setting          triclinic
_symmetry_space_group_name_Hall 'P 1'
_symmetry_space_group_name_H-M  'P 1'
_symmetry_Int_Tables_number     1

_symmetry_equiv_pos_as_xyz 'x,y,z'

loop_
_atom_site_label
_atom_site_type_symbol
_atom_site_fract_x
_atom_site_fract_y
_atom_site_fract_z
_atom_site_charge
Zn       Zn     0.730900000000     0.155230000000     0.816760000000     0.427691   
Zn       Zn     0.769100000000     0.655230000000     0.683240000000     0.427691   
Zn       Zn     0.269100000000     0.844770000000     0.183240000000     0.427691   
Zn       Zn     0.230900000000     0.344770000000     0.316760000000     0.427691   
H        H      0.998400000000     0.197400000000     0.044100000000     0.0529614  
H        H      0.254000000000     0.025500000000     0.918500000000     0.0529614  
H        H      0.400800000000     0.134600000000     0.139800000000     0.0529614  
H        H      0.284200000000     0.324000000000     0.904100000000     0.0529614  
H        H      0.681300000000     0.247200000000     0.987500000000     0.0529614  
H        H      0.387800000000     0.222700000000     0.807400000000     0.0529614  
H        H      0.359800000000     0.376100000000     0.048000000000     0.0529614  
H        H      0.504400000000     0.333100000000     0.091500000000     0.0529614  
H        H      0.636300000000     0.460800000000     0.026900000000     0.0529614  
H        H      0.528700000000     0.507700000000     0.085400000000     0.0529614  
H        H      0.778000000000     0.891200000000     0.607500000000     0.0529614  
H        H      0.493000000000     0.829900000000     0.586000000000     0.0529614  
H        H      0.387400000000     0.919000000000     0.601800000000     0.0529614  
H        H      0.477700000000     0.024100000000     0.725200000000     0.0529614  
H        H      0.888800000000     0.989900000000     0.719000000000     0.0529614  
H        H      0.431100000000     0.916000000000     0.463700000000     0.0529614  
H        H      0.598100000000     0.923500000000     0.487100000000     0.0529614  
H        H      0.501600000000     0.697400000000     0.455900000000     0.0529614  
H        H      0.246000000000     0.525500000000     0.581500000000     0.0529614  
H        H      0.099200000000     0.634600000000     0.360200000000     0.0529614  
H        H      0.215800000000     0.824000000000     0.595900000000     0.0529614  
H        H      0.818700000000     0.747200000000     0.512500000000     0.0529614  
H        H      0.112200000000     0.722700000000     0.692600000000     0.0529614  
H        H      0.140200000000     0.876100000000     0.452000000000     0.0529614  
H        H      0.995600000000     0.833100000000     0.408500000000     0.0529614  
H        H      0.863700000000     0.960800000000     0.473100000000     0.0529614  
H        H      0.971300000000     0.007700000000     0.414600000000     0.0529614  
H        H      0.722000000000     0.391200000000     0.892500000000     0.0529614  
H        H      0.007000000000     0.329900000000     0.914000000000     0.0529614  
H        H      0.112600000000     0.419000000000     0.898200000000     0.0529614  
H        H      0.022300000000     0.524100000000     0.774800000000     0.0529614  
H        H      0.611200000000     0.489900000000     0.781000000000     0.0529614  
H        H      0.068900000000     0.416000000000     0.036300000000     0.0529614  
H        H      0.901900000000     0.423500000000     0.012900000000     0.0529614  
H        H      0.001600000000     0.802600000000     0.955900000000     0.0529614  
H        H      0.746000000000     0.974500000000     0.081500000000     0.0529614  
H        H      0.599200000000     0.865400000000     0.860200000000     0.0529614  
H        H      0.715800000000     0.676000000000     0.095900000000     0.0529614  
H        H      0.318700000000     0.752800000000     0.012500000000     0.0529614  
H        H      0.612200000000     0.777300000000     0.192600000000     0.0529614  
H        H      0.640200000000     0.623900000000     0.952000000000     0.0529614  
H        H      0.495600000000     0.666900000000     0.908500000000     0.0529614  
H        H      0.363700000000     0.539200000000     0.973100000000     0.0529614  
H        H      0.471300000000     0.492300000000     0.914600000000     0.0529614  
H        H      0.222000000000     0.108800000000     0.392500000000     0.0529614  
H        H      0.507000000000     0.170100000000     0.414000000000     0.0529614  
H        H      0.612600000000     0.081000000000     0.398200000000     0.0529614  
H        H      0.522300000000     0.975900000000     0.274800000000     0.0529614  
H        H      0.111200000000     0.010100000000     0.281000000000     0.0529614  
H        H      0.568900000000     0.084000000000     0.536300000000     0.0529614  
H        H      0.401900000000     0.076500000000     0.512900000000     0.0529614  
H        H      0.498400000000     0.302600000000     0.544100000000     0.0529614  
H        H      0.754000000000     0.474500000000     0.418500000000     0.0529614  
H        H      0.900800000000     0.365400000000     0.639800000000     0.0529614  
H        H      0.784200000000     0.176000000000     0.404100000000     0.0529614  
H        H      0.181300000000     0.252800000000     0.487500000000     0.0529614  
H        H      0.887800000000     0.277300000000     0.307400000000     0.0529614  
H        H      0.859800000000     0.123900000000     0.548000000000     0.0529614  
H        H      0.004400000000     0.166900000000     0.591500000000     0.0529614  
H        H      0.136300000000     0.039200000000     0.526900000000     0.0529614  
H        H      0.028700000000     0.992300000000     0.585400000000     0.0529614  
H        H      0.278000000000     0.608800000000     0.107500000000     0.0529614  
H        H      0.993000000000     0.670100000000     0.086000000000     0.0529614  
H        H      0.887400000000     0.581000000000     0.101800000000     0.0529614  
H        H      0.977700000000     0.475900000000     0.225200000000     0.0529614  
H        H      0.388800000000     0.510100000000     0.219000000000     0.0529614  
H        H      0.931100000000     0.584000000000     0.963700000000     0.0529614  
H        H      0.098100000000     0.576500000000     0.987100000000     0.0529614  
C        C      0.087500000000     0.166400000000     0.039900000000     0.0230592  
C        C      0.110600000000     0.111200000000     0.970300000000     0.0230592  
C        C      0.173900000000     0.237300000000     0.177300000000     0.0230592  
C        C      0.997600000000     0.107100000000     0.899000000000     0.0230592  
C        C      0.196000000000     0.175800000000     0.103500000000     0.0230592  
C        C      0.239200000000     0.063600000000     0.964900000000     0.0230592  
C        C      0.327300000000     0.128400000000     0.097600000000     0.0230592  
C        C      0.349200000000     0.071500000000     0.028600000000     0.0230592  
C        C      0.376500000000     0.295900000000     0.908600000000     0.0230592  
C        C      0.595800000000     0.252700000000     0.953500000000     0.0230592  
C        C      0.435600000000     0.241000000000     0.857600000000     0.0230592  
C        C      0.462300000000     0.366800000000     0.042400000000     0.0230592  
C        C      0.534700000000     0.470400000000     0.034700000000     0.0230592  
C        C      0.731400000000     0.929900000000     0.644800000000     0.0230592  
C        C      0.483900000000     0.902700000000     0.587100000000     0.0230592  
C        C      0.568100000000     0.003400000000     0.710800000000     0.0230592  
C        C      0.789300000000     0.984000000000     0.706700000000     0.0230592  
C        C      0.504300000000     0.944800000000     0.502900000000     0.0230592  
C        C      0.412500000000     0.666400000000     0.460100000000     0.0230592  
C        C      0.389400000000     0.611200000000     0.529700000000     0.0230592  
C        C      0.326100000000     0.737300000000     0.322700000000     0.0230592  
C        C      0.502400000000     0.607100000000     0.601000000000     0.0230592  
C        C      0.304000000000     0.675800000000     0.396500000000     0.0230592  
C        C      0.260800000000     0.563600000000     0.535100000000     0.0230592  
C        C      0.172700000000     0.628400000000     0.402400000000     0.0230592  
C        C      0.150800000000     0.571500000000     0.471400000000     0.0230592  
C        C      0.123500000000     0.795900000000     0.591400000000     0.0230592  
C        C      0.904200000000     0.752700000000     0.546500000000     0.0230592  
C        C      0.064400000000     0.741000000000     0.642400000000     0.0230592  
C        C      0.037700000000     0.866800000000     0.457600000000     0.0230592  
C        C      0.965300000000     0.970400000000     0.465300000000     0.0230592  
C        C      0.768600000000     0.429900000000     0.855200000000     0.0230592  
C        C      0.016100000000     0.402700000000     0.912900000000     0.0230592  
C        C      0.931900000000     0.503400000000     0.789200000000     0.0230592  
C        C      0.710700000000     0.484000000000     0.793300000000     0.0230592  
C        C      0.995700000000     0.444800000000     0.997100000000     0.0230592  
C        C      0.912500000000     0.833600000000     0.960100000000     0.0230592  
C        C      0.889400000000     0.888800000000     0.029700000000     0.0230592  
C        C      0.826100000000     0.762700000000     0.822700000000     0.0230592  
C        C      0.002400000000     0.892900000000     0.101000000000     0.0230592  
C        C      0.804000000000     0.824200000000     0.896500000000     0.0230592  
C        C      0.760800000000     0.936400000000     0.035100000000     0.0230592  
C        C      0.672700000000     0.871600000000     0.902400000000     0.0230592  
C        C      0.650800000000     0.928500000000     0.971400000000     0.0230592  
C        C      0.623500000000     0.704100000000     0.091400000000     0.0230592  
C        C      0.404200000000     0.747300000000     0.046500000000     0.0230592  
C        C      0.564400000000     0.759000000000     0.142400000000     0.0230592  
C        C      0.537700000000     0.633200000000     0.957600000000     0.0230592  
C        C      0.465300000000     0.529600000000     0.965300000000     0.0230592  
C        C      0.268600000000     0.070100000000     0.355200000000     0.0230592  
C        C      0.516100000000     0.097300000000     0.412900000000     0.0230592  
C        C      0.431900000000     0.996600000000     0.289200000000     0.0230592  
C        C      0.210700000000     0.016000000000     0.293300000000     0.0230592  
C        C      0.495700000000     0.055200000000     0.497100000000     0.0230592  
C        C      0.587500000000     0.333600000000     0.539900000000     0.0230592  
C        C      0.610600000000     0.388800000000     0.470300000000     0.0230592  
C        C      0.673900000000     0.262700000000     0.677300000000     0.0230592  
C        C      0.497600000000     0.392900000000     0.399000000000     0.0230592  
C        C      0.696000000000     0.324200000000     0.603500000000     0.0230592  
C        C      0.739200000000     0.436400000000     0.464900000000     0.0230592  
C        C      0.827300000000     0.371600000000     0.597600000000     0.0230592  
C        C      0.849200000000     0.428500000000     0.528600000000     0.0230592  
C        C      0.876500000000     0.204100000000     0.408600000000     0.0230592  
C        C      0.095800000000     0.247300000000     0.453500000000     0.0230592  
C        C      0.935600000000     0.259000000000     0.357600000000     0.0230592  
C        C      0.962300000000     0.133200000000     0.542400000000     0.0230592  
C        C      0.034700000000     0.029600000000     0.534700000000     0.0230592  
C        C      0.231400000000     0.570100000000     0.144800000000     0.0230592  
C        C      0.983900000000     0.597300000000     0.087100000000     0.0230592  
C        C      0.068100000000     0.496600000000     0.210800000000     0.0230592  
C        C      0.289300000000     0.516000000000     0.206700000000     0.0230592  
C        C      0.004300000000     0.555200000000     0.002900000000     0.0230592  
N        N      0.480500000000     0.303400000000     0.970900000000    -0.129649   
N        N      0.571400000000     0.210800000000     0.880300000000    -0.129649   
N        N      0.488400000000     0.025500000000     0.030500000000    -0.129649   
N        N      0.693700000000     0.029400000000     0.749900000000    -0.129649   
N        N      0.590500000000     0.943900000000     0.648400000000    -0.129649   
N        N      0.019500000000     0.803400000000     0.529100000000    -0.129649   
N        N      0.928600000000     0.710800000000     0.619700000000    -0.129649   
N        N      0.011600000000     0.525500000000     0.469500000000    -0.129649   
N        N      0.806300000000     0.529400000000     0.750100000000    -0.129649   
N        N      0.909500000000     0.443900000000     0.851600000000    -0.129649   
N        N      0.519500000000     0.696600000000     0.029100000000    -0.129649   
N        N      0.428600000000     0.789200000000     0.119700000000    -0.129649   
N        N      0.511600000000     0.974500000000     0.969500000000    -0.129649   
N        N      0.306300000000     0.970600000000     0.250100000000    -0.129649   
N        N      0.409500000000     0.056100000000     0.351600000000    -0.129649   
N        N      0.980500000000     0.196600000000     0.470900000000    -0.129649   
N        N      0.071400000000     0.289200000000     0.380300000000    -0.129649   
N        N      0.988400000000     0.474500000000     0.530500000000    -0.129649   
N        N      0.193700000000     0.470600000000     0.249900000000    -0.129649   
N        N      0.090500000000     0.556100000000     0.148400000000    -0.129649   
O        O      0.878600000000     0.152500000000     0.908900000000    -0.273714   
O        O      0.282500000000     0.252300000000     0.228400000000    -0.273714   
O        O      0.051900000000     0.272800000000     0.186300000000    -0.273714   
O        O      0.022000000000     0.064700000000     0.836200000000    -0.273714   
O        O      0.621400000000     0.652500000000     0.591100000000    -0.273714   
O        O      0.217500000000     0.752300000000     0.271600000000    -0.273714   
O        O      0.448100000000     0.772800000000     0.313700000000    -0.273714   
O        O      0.478000000000     0.564700000000     0.663800000000    -0.273714   
O        O      0.121400000000     0.847500000000     0.091100000000    -0.273714   
O        O      0.717500000000     0.747700000000     0.771600000000    -0.273714   
O        O      0.948100000000     0.727200000000     0.813700000000    -0.273714   
O        O      0.978000000000     0.935300000000     0.163800000000    -0.273714   
O        O      0.378600000000     0.347500000000     0.408900000000    -0.273714   
O        O      0.782500000000     0.247700000000     0.728400000000    -0.273714   
O        O      0.551900000000     0.227200000000     0.686300000000    -0.273714   
O        O      0.522000000000     0.435300000000     0.336200000000    -0.273714   


