data_REDYEG_original

_audit_creation_method RASPA-1.0
_audit_creation_date 2022-1-31
_audit_author_name 'Felipe Lopes de Oliveira <felipe.lopes.oliveira@ibm.com>'

_cell_length_a    8.1471
_cell_length_b    11.6977
_cell_length_c    11.6977
_cell_angle_alpha 70.447
_cell_angle_beta  75.266
_cell_angle_gamma 75.2658
_cell_volume      998.317

_symmetry_cell_setting          triclinic
_symmetry_space_group_name_Hall 'P 1'
_symmetry_space_group_name_H-M  'P 1'
_symmetry_Int_Tables_number     1

_symmetry_equiv_pos_as_xyz 'x,y,z'

loop_
_atom_site_label
_atom_site_type_symbol
_atom_site_fract_x
_atom_site_fract_y
_atom_site_fract_z
_atom_site_charge
Zn       Zn     0.436870000000     0.078630000000     0.099770000000     0.668655   
Zn       Zn     0.063130000000     0.900230000000     0.921370000000     0.668655   
Zn       Zn     0.563130000000     0.921370000000     0.900230000000     0.668655   
Zn       Zn     0.936870000000     0.099770000000     0.078630000000     0.668655   
Zn       Zn     0.750000000000     0.131980000000     0.868020000000     0.668655   
Zn       Zn     0.250000000000     0.868020000000     0.131980000000     0.668655   
H        H      0.766000000000     0.689100000000     0.035100000000     0.0656883  
H        H      0.520900000000     0.742800000000     0.770400000000     0.0656883  
H        H      0.596500000000     0.537500000000     0.779900000000     0.0656883  
H        H      0.841800000000     0.482100000000     0.054900000000     0.0656883  
H        H      0.734000000000     0.964900000000     0.310900000000     0.0656883  
H        H      0.979100000000     0.229600000000     0.257200000000     0.0656883  
H        H      0.903500000000     0.220100000000     0.462500000000     0.0656883  
H        H      0.658200000000     0.945100000000     0.517900000000     0.0656883  
H        H      0.234000000000     0.310900000000     0.964900000000     0.0656883  
H        H      0.479100000000     0.257200000000     0.229600000000     0.0656883  
H        H      0.403500000000     0.462500000000     0.220100000000     0.0656883  
H        H      0.158200000000     0.517900000000     0.945100000000     0.0656883  
H        H      0.266000000000     0.035100000000     0.689100000000     0.0656883  
H        H      0.020900000000     0.770400000000     0.742800000000     0.0656883  
H        H      0.096500000000     0.779900000000     0.537500000000     0.0656883  
H        H      0.341800000000     0.054900000000     0.482100000000     0.0656883  
C        C      0.730700000000     0.658150000000     0.983550000000     0.0481683  
C        C      0.587600000000     0.689650000000     0.827650000000     0.0481683  
C        C      0.632000000000     0.566230000000     0.833030000000     0.0481683  
C        C      0.777800000000     0.533720000000     0.995320000000     0.0481683  
C        C      0.729700000000     0.485920000000     0.918320000000     0.0481683  
C        C      0.780500000000     0.348830000000     0.930230000000     0.0481683  
C        C      0.769300000000     0.016450000000     0.341850000000     0.0481683  
C        C      0.912400000000     0.172350000000     0.310350000000     0.0481683  
C        C      0.868000000000     0.166970000000     0.433770000000     0.0481683  
C        C      0.722200000000     0.004680000000     0.466280000000     0.0481683  
C        C      0.770300000000     0.081680000000     0.514080000000     0.0481683  
C        C      0.719500000000     0.069770000000     0.651170000000     0.0481683  
C        C      0.269300000000     0.341850000000     0.016450000000     0.0481683  
C        C      0.412400000000     0.310350000000     0.172350000000     0.0481683  
C        C      0.368000000000     0.433770000000     0.166970000000     0.0481683  
C        C      0.222200000000     0.466280000000     0.004680000000     0.0481683  
C        C      0.270300000000     0.514080000000     0.081680000000     0.0481683  
C        C      0.219500000000     0.651170000000     0.069770000000     0.0481683  
C        C      0.230700000000     0.983550000000     0.658150000000     0.0481683  
C        C      0.087600000000     0.827650000000     0.689650000000     0.0481683  
C        C      0.132000000000     0.833030000000     0.566230000000     0.0481683  
C        C      0.277800000000     0.995320000000     0.533720000000     0.0481683  
C        C      0.229700000000     0.918320000000     0.485920000000     0.0481683  
C        C      0.280500000000     0.930230000000     0.348830000000     0.0481683  
N        N      0.636500000000     0.736320000000     0.901260000000    -0.136259   
N        N      0.863500000000     0.098740000000     0.263680000000    -0.136259   
N        N      0.363500000000     0.263680000000     0.098740000000    -0.136259   
N        N      0.136500000000     0.901260000000     0.736320000000    -0.136259   
O        O      0.722000000000     0.311050000000     0.862670000000    -0.267102   
O        O      0.875300000000     0.286890000000     0.007870000000    -0.267102   
O        O      0.778000000000     0.137330000000     0.688950000000    -0.267102   
O        O      0.624700000000     0.992130000000     0.713110000000    -0.267102   
O        O      0.278000000000     0.688950000000     0.137330000000    -0.267102   
O        O      0.124700000000     0.713110000000     0.992130000000    -0.267102   
O        O      0.222000000000     0.862670000000     0.311050000000    -0.267102   
O        O      0.375300000000     0.007870000000     0.286890000000    -0.267102   
F        F      0.505000000000     0.108840000000     0.909480000000    -0.442141   
F        F      0.691400000000     0.085300000000     0.074440000000    -0.442141   
F        F      0.995000000000     0.090520000000     0.891160000000    -0.442141   
F        F      0.808600000000     0.925560000000     0.914700000000    -0.442141   
F        F      0.495000000000     0.891160000000     0.090520000000    -0.442141   
F        F      0.308600000000     0.914700000000     0.925560000000    -0.442141   
F        F      0.005000000000     0.909480000000     0.108840000000    -0.442141   
F        F      0.191400000000     0.074440000000     0.085300000000    -0.442141   


