data_REYCOP_original

_audit_creation_method RASPA-1.0
_audit_creation_date 2022-1-30
_audit_author_name 'Felipe Lopes de Oliveira <felipe.lopes.oliveira@ibm.com>'

_cell_length_a    9.3898
_cell_length_b    17.0917
_cell_length_c    19.8601
_cell_angle_alpha 90
_cell_angle_beta  90
_cell_angle_gamma 100.428
_cell_volume      3134.66

_symmetry_cell_setting          triclinic
_symmetry_space_group_name_Hall 'P 1'
_symmetry_space_group_name_H-M  'P 1'
_symmetry_Int_Tables_number     1

_symmetry_equiv_pos_as_xyz 'x,y,z'

loop_
_atom_site_label
_atom_site_type_symbol
_atom_site_fract_x
_atom_site_fract_y
_atom_site_fract_z
_atom_site_charge
Zn       Zn     0.067070000000     0.278100000000     0.818700000000     0.42179    
Zn       Zn     0.432930000000     0.221900000000     0.318700000000     0.42179    
Zn       Zn     0.932930000000     0.721900000000     0.181300000000     0.42179    
Zn       Zn     0.567070000000     0.778100000000     0.681300000000     0.42179    
H        H      0.783300000000     0.058100000000     0.767000000000     0.0677699  
H        H      0.381000000000     0.942300000000     0.809400000000     0.0677699  
H        H      0.533500000000     0.153000000000     0.896500000000     0.0677699  
H        H      0.163100000000     0.969300000000     0.854000000000     0.0677699  
H        H      0.251600000000     0.930200000000     0.907800000000     0.0677699  
H        H      0.946700000000     0.015100000000     0.887200000000     0.0677699  
H        H      0.214900000000     0.963400000000     0.030500000000     0.0677699  
H        H      0.119200000000     0.125400000000     0.758200000000     0.0677699  
H        H      0.259800000000     0.077800000000     0.680300000000     0.0677699  
H        H      0.486900000000     0.296300000000     0.660000000000     0.0677699  
H        H      0.340900000000     0.338400000000     0.739400000000     0.0677699  
H        H      0.420800000000     0.155200000000     0.561200000000     0.0677699  
H        H      0.481300000000     0.099100000000     0.612100000000     0.0677699  
H        H      0.690100000000     0.133400000000     0.527800000000     0.0677699  
H        H      0.624400000000     0.203100000000     0.495800000000     0.0677699  
H        H      0.825400000000     0.294300000000     0.531000000000     0.0677699  
H        H      0.873900000000     0.230100000000     0.484000000000     0.0677699  
H        H      0.920300000000     0.217000000000     0.681700000000     0.0677699  
H        H      0.855600000000     0.287600000000     0.650800000000     0.0677699  
H        H      0.667500000000     0.191200000000     0.693500000000     0.0677699  
H        H      0.715600000000     0.126200000000     0.647200000000     0.0677699  
H        H      0.061700000000     0.321300000000     0.576500000000     0.0677699  
H        H      0.120500000000     0.256200000000     0.618100000000     0.0677699  
H        H      0.050000000000     0.141400000000     0.490700000000     0.0677699  
H        H      0.194900000000     0.122300000000     0.401800000000     0.0677699  
H        H      0.444800000000     0.324300000000     0.434900000000     0.0677699  
H        H      0.309800000000     0.349200000000     0.525100000000     0.0677699  
H        H      0.716700000000     0.441900000000     0.267000000000     0.0677699  
H        H      0.119000000000     0.557700000000     0.309400000000     0.0677699  
H        H      0.966500000000     0.347000000000     0.396500000000     0.0677699  
H        H      0.336900000000     0.530700000000     0.354000000000     0.0677699  
H        H      0.248400000000     0.569800000000     0.407800000000     0.0677699  
H        H      0.553300000000     0.484900000000     0.387200000000     0.0677699  
H        H      0.285100000000     0.536600000000     0.530500000000     0.0677699  
H        H      0.380800000000     0.374600000000     0.258200000000     0.0677699  
H        H      0.240200000000     0.422200000000     0.180300000000     0.0677699  
H        H      0.013100000000     0.203700000000     0.160000000000     0.0677699  
H        H      0.159100000000     0.161600000000     0.239400000000     0.0677699  
H        H      0.079200000000     0.344800000000     0.061200000000     0.0677699  
H        H      0.018700000000     0.400900000000     0.112100000000     0.0677699  
H        H      0.809900000000     0.366600000000     0.027800000000     0.0677699  
H        H      0.875600000000     0.296900000000     0.995800000000     0.0677699  
H        H      0.674600000000     0.205700000000     0.031000000000     0.0677699  
H        H      0.626100000000     0.269900000000     0.984000000000     0.0677699  
H        H      0.579700000000     0.283000000000     0.181700000000     0.0677699  
H        H      0.644400000000     0.212400000000     0.150800000000     0.0677699  
H        H      0.832500000000     0.308800000000     0.193500000000     0.0677699  
H        H      0.784400000000     0.373800000000     0.147200000000     0.0677699  
H        H      0.438300000000     0.178700000000     0.076500000000     0.0677699  
H        H      0.379500000000     0.243800000000     0.118100000000     0.0677699  
H        H      0.450000000000     0.358600000000     0.990700000000     0.0677699  
H        H      0.305100000000     0.377700000000     0.901800000000     0.0677699  
H        H      0.055200000000     0.175700000000     0.934900000000     0.0677699  
H        H      0.190200000000     0.150800000000     0.025100000000     0.0677699  
H        H      0.216700000000     0.941900000000     0.233000000000     0.0677699  
H        H      0.619000000000     0.057700000000     0.190600000000     0.0677699  
H        H      0.466500000000     0.847000000000     0.103500000000     0.0677699  
H        H      0.836900000000     0.030700000000     0.146000000000     0.0677699  
H        H      0.748400000000     0.069800000000     0.092200000000     0.0677699  
H        H      0.053300000000     0.984900000000     0.112800000000     0.0677699  
H        H      0.785100000000     0.036600000000     0.969500000000     0.0677699  
H        H      0.880800000000     0.874600000000     0.241800000000     0.0677699  
H        H      0.740200000000     0.922200000000     0.319700000000     0.0677699  
H        H      0.513100000000     0.703700000000     0.340000000000     0.0677699  
H        H      0.659100000000     0.661600000000     0.260600000000     0.0677699  
H        H      0.579200000000     0.844800000000     0.438800000000     0.0677699  
H        H      0.518700000000     0.900900000000     0.387900000000     0.0677699  
H        H      0.309900000000     0.866600000000     0.472200000000     0.0677699  
H        H      0.375600000000     0.796900000000     0.504200000000     0.0677699  
H        H      0.174600000000     0.705700000000     0.469000000000     0.0677699  
H        H      0.126100000000     0.769900000000     0.516000000000     0.0677699  
H        H      0.079700000000     0.783000000000     0.318300000000     0.0677699  
H        H      0.144400000000     0.712400000000     0.349200000000     0.0677699  
H        H      0.332500000000     0.808800000000     0.306500000000     0.0677699  
H        H      0.284400000000     0.873800000000     0.352800000000     0.0677699  
H        H      0.938300000000     0.678700000000     0.423500000000     0.0677699  
H        H      0.879500000000     0.743800000000     0.381900000000     0.0677699  
H        H      0.950000000000     0.858600000000     0.509300000000     0.0677699  
H        H      0.805100000000     0.877700000000     0.598200000000     0.0677699  
H        H      0.555200000000     0.675700000000     0.565100000000     0.0677699  
H        H      0.690200000000     0.650800000000     0.474900000000     0.0677699  
H        H      0.283300000000     0.558100000000     0.733000000000     0.0677699  
H        H      0.881000000000     0.442300000000     0.690600000000     0.0677699  
H        H      0.033500000000     0.653000000000     0.603500000000     0.0677699  
H        H      0.663100000000     0.469300000000     0.646000000000     0.0677699  
H        H      0.751600000000     0.430200000000     0.592200000000     0.0677699  
H        H      0.446700000000     0.515100000000     0.612800000000     0.0677699  
H        H      0.714900000000     0.463400000000     0.469500000000     0.0677699  
H        H      0.619200000000     0.625400000000     0.741800000000     0.0677699  
H        H      0.759800000000     0.577800000000     0.819700000000     0.0677699  
H        H      0.986900000000     0.796300000000     0.840000000000     0.0677699  
H        H      0.840900000000     0.838400000000     0.760600000000     0.0677699  
H        H      0.920800000000     0.655200000000     0.938800000000     0.0677699  
H        H      0.981300000000     0.599100000000     0.887900000000     0.0677699  
H        H      0.190100000000     0.633400000000     0.972200000000     0.0677699  
H        H      0.124400000000     0.703100000000     0.004200000000     0.0677699  
H        H      0.325400000000     0.794300000000     0.969000000000     0.0677699  
H        H      0.373900000000     0.730100000000     0.016000000000     0.0677699  
H        H      0.420300000000     0.717000000000     0.818300000000     0.0677699  
H        H      0.355600000000     0.787600000000     0.849200000000     0.0677699  
H        H      0.167500000000     0.691200000000     0.806500000000     0.0677699  
H        H      0.215600000000     0.626200000000     0.852800000000     0.0677699  
H        H      0.561700000000     0.821300000000     0.923500000000     0.0677699  
H        H      0.620500000000     0.756200000000     0.881900000000     0.0677699  
H        H      0.550000000000     0.641400000000     0.009300000000     0.0677699  
H        H      0.694900000000     0.622300000000     0.098200000000     0.0677699  
H        H      0.944800000000     0.824300000000     0.065100000000     0.0677699  
H        H      0.809800000000     0.849200000000     0.974900000000     0.0677699  
C        C      0.795100000000     0.188000000000     0.842500000000    -0.0143387  
C        C      0.677000000000     0.117200000000     0.832900000000    -0.0143387  
C        C      0.695600000000     0.055900000000     0.789400000000    -0.0143387  
C        C      0.584600000000     0.991900000000     0.779200000000    -0.0143387  
C        C      0.607000000000     0.927300000000     0.731500000000    -0.0143387  
C        C      0.454800000000     0.986000000000     0.815200000000    -0.0143387  
C        C      0.438200000000     0.046400000000     0.859400000000    -0.0143387  
C        C      0.547300000000     0.112200000000     0.867600000000    -0.0143387  
C        C      0.209000000000     0.976500000000     0.897800000000    -0.0143387  
C        C      0.099800000000     0.987400000000     0.951000000000    -0.0143387  
C        C      0.968500000000     0.009100000000     0.932400000000    -0.0143387  
C        C      0.128100000000     0.978300000000     0.018000000000    -0.0143387  
C        C      0.193800000000     0.160800000000     0.737900000000    -0.0143387  
C        C      0.277400000000     0.131700000000     0.690700000000    -0.0143387  
C        C      0.388000000000     0.182600000000     0.658700000000    -0.0143387  
C        C      0.411400000000     0.260100000000     0.678700000000    -0.0143387  
C        C      0.323000000000     0.285100000000     0.726800000000    -0.0143387  
C        C      0.472600000000     0.153900000000     0.603300000000    -0.0143387  
C        C      0.684100000000     0.189200000000     0.532200000000    -0.0143387  
C        C      0.832100000000     0.238500000000     0.527500000000    -0.0143387  
C        C      0.860500000000     0.231700000000     0.645700000000    -0.0143387  
C        C      0.709800000000     0.182200000000     0.650300000000    -0.0143387  
C        C      0.069400000000     0.265400000000     0.577300000000    -0.0143387  
C        C      0.158800000000     0.248900000000     0.517900000000    -0.0143387  
C        C      0.129500000000     0.180400000000     0.480100000000    -0.0143387  
C        C      0.217200000000     0.169100000000     0.426400000000    -0.0143387  
C        C      0.363200000000     0.287100000000     0.446000000000    -0.0143387  
C        C      0.282100000000     0.302700000000     0.500300000000    -0.0143387  
C        C      0.704900000000     0.312000000000     0.342500000000    -0.0143387  
C        C      0.823000000000     0.382800000000     0.332900000000    -0.0143387  
C        C      0.804400000000     0.444100000000     0.289400000000    -0.0143387  
C        C      0.915400000000     0.508100000000     0.279200000000    -0.0143387  
C        C      0.893000000000     0.572700000000     0.231500000000    -0.0143387  
C        C      0.045200000000     0.514000000000     0.315200000000    -0.0143387  
C        C      0.061800000000     0.453600000000     0.359400000000    -0.0143387  
C        C      0.952700000000     0.387800000000     0.367600000000    -0.0143387  
C        C      0.291000000000     0.523500000000     0.397800000000    -0.0143387  
C        C      0.400200000000     0.512600000000     0.451000000000    -0.0143387  
C        C      0.531500000000     0.490900000000     0.432400000000    -0.0143387  
C        C      0.371900000000     0.521700000000     0.518000000000    -0.0143387  
C        C      0.306200000000     0.339200000000     0.237900000000    -0.0143387  
C        C      0.222600000000     0.368300000000     0.190700000000    -0.0143387  
C        C      0.112000000000     0.317400000000     0.158700000000    -0.0143387  
C        C      0.088600000000     0.239900000000     0.178700000000    -0.0143387  
C        C      0.177000000000     0.214900000000     0.226800000000    -0.0143387  
C        C      0.027400000000     0.346100000000     0.103300000000    -0.0143387  
C        C      0.815900000000     0.310800000000     0.032200000000    -0.0143387  
C        C      0.667900000000     0.261500000000     0.027500000000    -0.0143387  
C        C      0.639500000000     0.268300000000     0.145700000000    -0.0143387  
C        C      0.790200000000     0.317800000000     0.150300000000    -0.0143387  
C        C      0.430600000000     0.234600000000     0.077300000000    -0.0143387  
C        C      0.341200000000     0.251100000000     0.017900000000    -0.0143387  
C        C      0.370500000000     0.319600000000     0.980100000000    -0.0143387  
C        C      0.282800000000     0.330900000000     0.926400000000    -0.0143387  
C        C      0.136800000000     0.212900000000     0.946000000000    -0.0143387  
C        C      0.217900000000     0.197300000000     0.000300000000    -0.0143387  
C        C      0.204900000000     0.812000000000     0.157500000000    -0.0143387  
C        C      0.323000000000     0.882800000000     0.167100000000    -0.0143387  
C        C      0.304400000000     0.944100000000     0.210600000000    -0.0143387  
C        C      0.415400000000     0.008100000000     0.220800000000    -0.0143387  
C        C      0.393000000000     0.072700000000     0.268500000000    -0.0143387  
C        C      0.545200000000     0.014000000000     0.184800000000    -0.0143387  
C        C      0.561800000000     0.953600000000     0.140600000000    -0.0143387  
C        C      0.452700000000     0.887800000000     0.132400000000    -0.0143387  
C        C      0.791000000000     0.023500000000     0.102200000000    -0.0143387  
C        C      0.900200000000     0.012600000000     0.049000000000    -0.0143387  
C        C      0.031500000000     0.990900000000     0.067600000000    -0.0143387  
C        C      0.871900000000     0.021700000000     0.982000000000    -0.0143387  
C        C      0.806200000000     0.839200000000     0.262100000000    -0.0143387  
C        C      0.722600000000     0.868300000000     0.309300000000    -0.0143387  
C        C      0.612000000000     0.817400000000     0.341300000000    -0.0143387  
C        C      0.588600000000     0.739900000000     0.321300000000    -0.0143387  
C        C      0.677000000000     0.714900000000     0.273200000000    -0.0143387  
C        C      0.527400000000     0.846100000000     0.396700000000    -0.0143387  
C        C      0.315900000000     0.810800000000     0.467800000000    -0.0143387  
C        C      0.167900000000     0.761500000000     0.472500000000    -0.0143387  
C        C      0.139500000000     0.768300000000     0.354300000000    -0.0143387  
C        C      0.290200000000     0.817800000000     0.349700000000    -0.0143387  
C        C      0.930600000000     0.734600000000     0.422700000000    -0.0143387  
C        C      0.841200000000     0.751100000000     0.482100000000    -0.0143387  
C        C      0.870500000000     0.819600000000     0.519900000000    -0.0143387  
C        C      0.782800000000     0.830900000000     0.573600000000    -0.0143387  
C        C      0.636800000000     0.712900000000     0.554000000000    -0.0143387  
C        C      0.717900000000     0.697300000000     0.499700000000    -0.0143387  
C        C      0.295100000000     0.688000000000     0.657500000000    -0.0143387  
C        C      0.177000000000     0.617200000000     0.667100000000    -0.0143387  
C        C      0.195600000000     0.555900000000     0.710600000000    -0.0143387  
C        C      0.084600000000     0.491900000000     0.720800000000    -0.0143387  
C        C      0.107000000000     0.427300000000     0.768500000000    -0.0143387  
C        C      0.954800000000     0.486000000000     0.684800000000    -0.0143387  
C        C      0.938200000000     0.546400000000     0.640600000000    -0.0143387  
C        C      0.047300000000     0.612200000000     0.632400000000    -0.0143387  
C        C      0.709000000000     0.476500000000     0.602200000000    -0.0143387  
C        C      0.599800000000     0.487400000000     0.549000000000    -0.0143387  
C        C      0.468500000000     0.509100000000     0.567600000000    -0.0143387  
C        C      0.628100000000     0.478300000000     0.482000000000    -0.0143387  
C        C      0.693800000000     0.660800000000     0.762100000000    -0.0143387  
C        C      0.777400000000     0.631700000000     0.809300000000    -0.0143387  
C        C      0.888000000000     0.682600000000     0.841300000000    -0.0143387  
C        C      0.911400000000     0.760100000000     0.821300000000    -0.0143387  
C        C      0.823000000000     0.785100000000     0.773200000000    -0.0143387  
C        C      0.972600000000     0.653900000000     0.896700000000    -0.0143387  
C        C      0.184100000000     0.689200000000     0.967800000000    -0.0143387  
C        C      0.332100000000     0.738500000000     0.972500000000    -0.0143387  
C        C      0.360500000000     0.731700000000     0.854300000000    -0.0143387  
C        C      0.209800000000     0.682200000000     0.849700000000    -0.0143387  
C        C      0.569400000000     0.765400000000     0.922700000000    -0.0143387  
C        C      0.658800000000     0.748900000000     0.982100000000    -0.0143387  
C        C      0.629500000000     0.680400000000     0.019900000000    -0.0143387  
C        C      0.717200000000     0.669100000000     0.073600000000    -0.0143387  
C        C      0.863200000000     0.787100000000     0.054000000000    -0.0143387  
C        C      0.782100000000     0.802700000000     0.999700000000    -0.0143387  
N        N      0.213500000000     0.236600000000     0.756000000000    -0.129248   
N        N      0.618500000000     0.202700000000     0.596900000000    -0.129248   
N        N      0.925500000000     0.218600000000     0.580200000000    -0.129248   
N        N      0.332000000000     0.222300000000     0.408630000000    -0.129248   
N        N      0.286500000000     0.263400000000     0.256000000000    -0.129248   
N        N      0.881500000000     0.297300000000     0.096900000000    -0.129248   
N        N      0.574500000000     0.281400000000     0.080200000000    -0.129248   
N        N      0.168000000000     0.277700000000     0.908630000000    -0.129248   
N        N      0.786500000000     0.763400000000     0.244000000000    -0.129248   
N        N      0.381500000000     0.797300000000     0.403100000000    -0.129248   
N        N      0.074500000000     0.781400000000     0.419800000000    -0.129248   
N        N      0.668000000000     0.777700000000     0.591370000000    -0.129248   
N        N      0.713500000000     0.736600000000     0.744000000000    -0.129248   
N        N      0.118500000000     0.702700000000     0.903100000000    -0.129248   
N        N      0.425500000000     0.718600000000     0.919800000000    -0.129248   
N        N      0.832000000000     0.722300000000     0.091370000000    -0.129248   
O        O      0.915310000000     0.183610000000     0.814980000000    -0.26662    
O        O      0.773800000000     0.245700000000     0.875000000000    -0.26662    
O        O      0.718900000000     0.933800000000     0.697900000000    -0.26662    
O        O      0.507970000000     0.865770000000     0.729150000000    -0.26662    
O        O      0.316600000000     0.045900000000     0.898300000000    -0.26662    
O        O      0.584690000000     0.316390000000     0.314980000000    -0.26662    
O        O      0.726200000000     0.254300000000     0.375000000000    -0.26662    
O        O      0.781100000000     0.566200000000     0.197900000000    -0.26662    
O        O      0.992030000000     0.634230000000     0.229150000000    -0.26662    
O        O      0.183400000000     0.454100000000     0.398300000000    -0.26662    
O        O      0.084690000000     0.816390000000     0.185020000000    -0.26662    
O        O      0.226200000000     0.754300000000     0.125000000000    -0.26662    
O        O      0.281100000000     0.066200000000     0.302100000000    -0.26662    
O        O      0.492030000000     0.134230000000     0.270850000000    -0.26662    
O        O      0.683400000000     0.954100000000     0.101700000000    -0.26662    
O        O      0.415310000000     0.683610000000     0.685020000000    -0.26662    
O        O      0.273800000000     0.745700000000     0.625000000000    -0.26662    
O        O      0.218900000000     0.433800000000     0.802100000000    -0.26662    
O        O      0.007970000000     0.365770000000     0.770850000000    -0.26662    
O        O      0.816600000000     0.545900000000     0.601700000000    -0.26662    


