data_REYPIW_original

_audit_creation_method RASPA-1.0
_audit_creation_date 2022-1-28
_audit_author_name 'Felipe Lopes de Oliveira <felipe.lopes.oliveira@ibm.com>'

_cell_length_a    11.4581
_cell_length_b    11.6819
_cell_length_c    11.8696
_cell_angle_alpha 64.132
_cell_angle_beta  81.202
_cell_angle_gamma 72.663
_cell_volume      1364.15

_symmetry_cell_setting          triclinic
_symmetry_space_group_name_Hall 'P 1'
_symmetry_space_group_name_H-M  'P 1'
_symmetry_Int_Tables_number     1

_symmetry_equiv_pos_as_xyz 'x,y,z'

loop_
_atom_site_label
_atom_site_type_symbol
_atom_site_fract_x
_atom_site_fract_y
_atom_site_fract_z
_atom_site_charge
Zn       Zn     0.000000000000     0.000000000000     0.500000000000     0.424168   
Zn       Zn     0.000000000000     0.500000000000     0.500000000000     0.424168   
Zn       Zn     0.000000000000     0.000000000000     0.000000000000     0.424168   
H        H      0.779800000000     0.999300000000     0.688000000000     0.0516372  
H        H      0.640100000000     0.401900000000     0.367400000000     0.0516372  
H        H      0.581900000000     0.117100000000     0.699600000000     0.0516372  
H        H      0.208400000000     0.372200000000     0.699800000000     0.0516372  
H        H      0.836400000000     0.276200000000     0.366200000000     0.0516372  
H        H      0.416300000000     0.277100000000     0.714800000000     0.0516372  
H        H      0.441700000000     0.441900000000     0.339100000000     0.0516372  
H        H      0.233800000000     0.529800000000     0.336300000000     0.0516372  
H        H      0.539600000000     0.194400000000     0.951400000000     0.0516372  
H        H      0.841100000000     0.813700000000     0.031600000000     0.0516372  
H        H      0.643900000000     0.807700000000     0.034700000000     0.0516372  
H        H      0.740400000000     0.190000000000     0.945700000000     0.0516372  
H        H      0.220200000000     0.000700000000     0.312000000000     0.0516372  
H        H      0.359900000000     0.598100000000     0.632600000000     0.0516372  
H        H      0.418100000000     0.882900000000     0.300400000000     0.0516372  
H        H      0.791600000000     0.627800000000     0.300200000000     0.0516372  
H        H      0.163600000000     0.723800000000     0.633800000000     0.0516372  
H        H      0.583700000000     0.722900000000     0.285200000000     0.0516372  
H        H      0.558300000000     0.558100000000     0.660900000000     0.0516372  
H        H      0.766200000000     0.470200000000     0.663700000000     0.0516372  
H        H      0.460400000000     0.805600000000     0.048600000000     0.0516372  
H        H      0.158900000000     0.186300000000     0.968400000000     0.0516372  
H        H      0.356100000000     0.192300000000     0.965300000000     0.0516372  
H        H      0.259600000000     0.810000000000     0.054300000000     0.0516372  
C        C      0.750800000000     0.080600000000     0.622300000000     0.0248694  
C        C      0.023300000000     0.220500000000     0.619500000000     0.0248694  
C        C      0.039600000000     0.966800000000     0.766600000000     0.0248694  
C        C      0.453300000000     0.343700000000     0.527500000000     0.0248694  
C        C      0.665700000000     0.319600000000     0.433000000000     0.0248694  
C        C      0.631300000000     0.150600000000     0.629800000000     0.0248694  
C        C      0.255800000000     0.384200000000     0.626600000000     0.0248694  
C        C      0.051500000000     0.247600000000     0.483900000000     0.0248694  
C        C      0.019600000000     0.111300000000     0.729800000000     0.0248694  
C        C      0.585400000000     0.272400000000     0.531400000000     0.0248694  
C        C      0.784000000000     0.243300000000     0.433100000000     0.0248694  
C        C      0.381200000000     0.326400000000     0.636600000000     0.0248694  
C        C      0.396300000000     0.423900000000     0.413900000000     0.0248694  
C        C      0.270900000000     0.476900000000     0.413200000000     0.0248694  
C        C      0.565600000000     0.000600000000     0.996700000000     0.0248694  
C        C      0.599200000000     0.115200000000     0.968400000000     0.0248694  
C        C      0.779500000000     0.891300000000     0.015200000000     0.0248694  
C        C      0.660900000000     0.886600000000     0.018300000000     0.0248694  
C        C      0.720300000000     0.111700000000     0.965500000000     0.0248694  
C        C      0.249200000000     0.919400000000     0.377700000000     0.0248694  
C        C      0.976700000000     0.779500000000     0.380500000000     0.0248694  
C        C      0.960400000000     0.033200000000     0.233400000000     0.0248694  
C        C      0.546700000000     0.656300000000     0.472500000000     0.0248694  
C        C      0.334300000000     0.680400000000     0.567000000000     0.0248694  
C        C      0.368700000000     0.849400000000     0.370200000000     0.0248694  
C        C      0.744200000000     0.615800000000     0.373400000000     0.0248694  
C        C      0.948500000000     0.752400000000     0.516100000000     0.0248694  
C        C      0.980400000000     0.888700000000     0.270200000000     0.0248694  
C        C      0.414600000000     0.727600000000     0.468600000000     0.0248694  
C        C      0.216000000000     0.756700000000     0.566900000000     0.0248694  
C        C      0.618800000000     0.673600000000     0.363400000000     0.0248694  
C        C      0.603700000000     0.576100000000     0.586100000000     0.0248694  
C        C      0.729100000000     0.523100000000     0.586800000000     0.0248694  
C        C      0.434400000000     0.999400000000     0.003300000000     0.0248694  
C        C      0.400800000000     0.884800000000     0.031600000000     0.0248694  
C        C      0.220500000000     0.108700000000     0.984800000000     0.0248694  
C        C      0.339100000000     0.113400000000     0.981700000000     0.0248694  
C        C      0.279700000000     0.888300000000     0.034500000000     0.0248694  
N        N      0.996800000000     0.324000000000     0.650500000000    -0.114638   
N        N      0.826800000000     0.124200000000     0.525100000000    -0.114638   
N        N      0.200400000000     0.455900000000     0.517200000000    -0.114638   
N        N      0.976600000000     0.282900000000     0.773500000000    -0.114638   
N        N      0.990700000000     0.153700000000     0.822500000000    -0.114638   
N        N      0.811300000000     0.001400000000     0.989800000000    -0.114638   
N        N      0.003200000000     0.676000000000     0.349500000000    -0.114638   
N        N      0.173200000000     0.875800000000     0.474900000000    -0.114638   
N        N      0.799600000000     0.544100000000     0.482800000000    -0.114638   
N        N      0.023400000000     0.717100000000     0.226500000000    -0.114638   
N        N      0.009300000000     0.846300000000     0.177500000000    -0.114638   
N        N      0.188700000000     0.998600000000     0.010200000000    -0.114638   
O        O      0.083600000000     0.154900000000     0.449600000000    -0.260147   
O        O      0.043700000000     0.367200000000     0.411500000000    -0.260147   
O        O      0.043600000000     0.922200000000     0.688300000000    -0.260147   
O        O      0.052100000000     0.895700000000     0.883500000000    -0.260147   
O        O      0.916400000000     0.845100000000     0.550400000000    -0.260147   
O        O      0.956300000000     0.632800000000     0.588500000000    -0.260147   
O        O      0.956400000000     0.077800000000     0.311700000000    -0.260147   
O        O      0.947900000000     0.104300000000     0.116500000000    -0.260147   


