data_RUMWUS_original

_audit_creation_method RASPA-1.0
_audit_creation_date 2022-1-30
_audit_author_name 'Felipe Lopes de Oliveira <felipe.lopes.oliveira@ibm.com>'

_cell_length_a    13.177
_cell_length_b    13.2269
_cell_length_c    13.2269
_cell_angle_alpha 88.4351
_cell_angle_beta  79.8713
_cell_angle_gamma 79.871
_cell_volume      2234.01

_symmetry_cell_setting          triclinic
_symmetry_space_group_name_Hall 'P 1'
_symmetry_space_group_name_H-M  'P 1'
_symmetry_Int_Tables_number     1

_symmetry_equiv_pos_as_xyz 'x,y,z'

loop_
_atom_site_label
_atom_site_type_symbol
_atom_site_fract_x
_atom_site_fract_y
_atom_site_fract_z
_atom_site_charge
Zn       Zn     0.003730000000     0.292470000000     0.363230000000     0.478526   
Zn       Zn     0.191290000000     0.389000000000     0.235980000000     0.478526   
Zn       Zn     0.503730000000     0.363230000000     0.292470000000     0.478526   
Zn       Zn     0.691290000000     0.235980000000     0.389000000000     0.478526   
H        H      0.492000000000     0.791600000000     0.997400000000     0.0602569  
H        H      0.457800000000     0.870800000000     0.913400000000     0.0602569  
H        H      0.630200000000     0.979500000000     0.870300000000     0.0602569  
H        H      0.587200000000     0.933600000000     0.781200000000     0.0602569  
H        H      0.619500000000     0.671700000000     0.870100000000     0.0602569  
H        H      0.699200000000     0.717200000000     0.786200000000     0.0602569  
H        H      0.704600000000     0.861300000000     0.999900000000     0.0602569  
H        H      0.769600000000     0.778400000000     0.919600000000     0.0602569  
H        H      0.314100000000     0.909000000000     0.032000000000     0.0602569  
H        H      0.495400000000     0.078200000000     0.143000000000     0.0602569  
H        H      0.168000000000     0.012700000000     0.121300000000     0.0602569  
H        H      0.351200000000     0.178200000000     0.230600000000     0.0602569  
H        H      0.641300000000     0.082000000000     0.723800000000     0.0602569  
H        H      0.910500000000     0.881200000000     0.652400000000     0.0602569  
H        H      0.706100000000     0.192900000000     0.598700000000     0.0602569  
H        H      0.976500000000     0.996000000000     0.536000000000     0.0602569  
H        H      0.427700000000     0.735300000000     0.645100000000     0.0602569  
H        H      0.697200000000     0.582900000000     0.714100000000     0.0602569  
H        H      0.433500000000     0.615200000000     0.519200000000     0.0602569  
H        H      0.707800000000     0.468700000000     0.580300000000     0.0602569  
H        H      0.874400000000     0.727400000000     0.022400000000     0.0602569  
H        H      0.647100000000     0.570200000000     0.137400000000     0.0602569  
H        H      0.989700000000     0.615600000000     0.099800000000     0.0602569  
H        H      0.765100000000     0.457800000000     0.214600000000     0.0602569  
H        H      0.992000000000     0.997400000000     0.791600000000     0.0602569  
H        H      0.957800000000     0.913400000000     0.870800000000     0.0602569  
H        H      0.130200000000     0.870300000000     0.979500000000     0.0602569  
H        H      0.087200000000     0.781200000000     0.933600000000     0.0602569  
H        H      0.119500000000     0.870100000000     0.671700000000     0.0602569  
H        H      0.199200000000     0.786200000000     0.717200000000     0.0602569  
H        H      0.204600000000     0.999900000000     0.861300000000     0.0602569  
H        H      0.269600000000     0.919600000000     0.778400000000     0.0602569  
H        H      0.814100000000     0.032000000000     0.909000000000     0.0602569  
H        H      0.995400000000     0.143000000000     0.078200000000     0.0602569  
H        H      0.668000000000     0.121300000000     0.012700000000     0.0602569  
H        H      0.851200000000     0.230600000000     0.178200000000     0.0602569  
H        H      0.141300000000     0.723800000000     0.082000000000     0.0602569  
H        H      0.410500000000     0.652400000000     0.881200000000     0.0602569  
H        H      0.206100000000     0.598700000000     0.192900000000     0.0602569  
H        H      0.476500000000     0.536000000000     0.996000000000     0.0602569  
H        H      0.927700000000     0.645100000000     0.735300000000     0.0602569  
H        H      0.197200000000     0.714100000000     0.582900000000     0.0602569  
H        H      0.933500000000     0.519200000000     0.615200000000     0.0602569  
H        H      0.207800000000     0.580300000000     0.468700000000     0.0602569  
H        H      0.374400000000     0.022400000000     0.727400000000     0.0602569  
H        H      0.147100000000     0.137400000000     0.570200000000     0.0602569  
H        H      0.489700000000     0.099800000000     0.615600000000     0.0602569  
H        H      0.265100000000     0.214600000000     0.457800000000     0.0602569  
C        C      0.618300000000     0.825600000000     0.894000000000     0.0316809  
C        C      0.509300000000     0.850700000000     0.957500000000     0.0316809  
C        C      0.637800000000     0.919600000000     0.827000000000     0.0316809  
C        C      0.629400000000     0.731000000000     0.827000000000     0.0316809  
C        C      0.701500000000     0.800900000000     0.961500000000     0.0316809  
C        C      0.419300000000     0.984900000000     0.075300000000     0.0316809  
C        C      0.321500000000     0.964000000000     0.070800000000     0.0316809  
C        C      0.429300000000     0.065600000000     0.137800000000     0.0316809  
C        C      0.234300000000     0.025900000000     0.124900000000     0.0316809  
C        C      0.343500000000     0.124700000000     0.189900000000     0.0316809  
C        C      0.244000000000     0.107500000000     0.184500000000     0.0316809  
C        C      0.148400000000     0.171200000000     0.241400000000     0.0316809  
C        C      0.770500000000     0.970400000000     0.699600000000     0.0316809  
C        C      0.707900000000     0.064200000000     0.685000000000     0.0316809  
C        C      0.869800000000     0.944500000000     0.642900000000     0.0316809  
C        C      0.747600000000     0.130700000000     0.610500000000     0.0316809  
C        C      0.908500000000     0.012300000000     0.572300000000     0.0316809  
C        C      0.845900000000     0.106400000000     0.554800000000     0.0316809  
C        C      0.889100000000     0.178200000000     0.478000000000     0.0316809  
C        C      0.563700000000     0.672100000000     0.689100000000     0.0316809  
C        C      0.483800000000     0.681100000000     0.632500000000     0.0316809  
C        C      0.645600000000     0.591200000000     0.673200000000     0.0316809  
C        C      0.487400000000     0.609200000000     0.557000000000     0.0316809  
C        C      0.650200000000     0.521300000000     0.594500000000     0.0316809  
C        C      0.571000000000     0.528400000000     0.537400000000     0.0316809  
C        C      0.577500000000     0.450600000000     0.457000000000     0.0316809  
C        C      0.749500000000     0.660100000000     0.072300000000     0.0316809  
C        C      0.852000000000     0.673200000000     0.061000000000     0.0316809  
C        C      0.716500000000     0.579100000000     0.129700000000     0.0316809  
C        C      0.920600000000     0.605700000000     0.106900000000     0.0316809  
C        C      0.787500000000     0.511700000000     0.175300000000     0.0316809  
C        C      0.891000000000     0.523100000000     0.163700000000     0.0316809  
C        C      0.968900000000     0.449700000000     0.210300000000     0.0316809  
C        C      0.118300000000     0.894000000000     0.825600000000     0.0316809  
C        C      0.009300000000     0.957500000000     0.850700000000     0.0316809  
C        C      0.137800000000     0.827000000000     0.919600000000     0.0316809  
C        C      0.129400000000     0.827000000000     0.731000000000     0.0316809  
C        C      0.201500000000     0.961500000000     0.800900000000     0.0316809  
C        C      0.919300000000     0.075300000000     0.984900000000     0.0316809  
C        C      0.821500000000     0.070800000000     0.964000000000     0.0316809  
C        C      0.929300000000     0.137800000000     0.065600000000     0.0316809  
C        C      0.734300000000     0.124900000000     0.025900000000     0.0316809  
C        C      0.843500000000     0.189900000000     0.124700000000     0.0316809  
C        C      0.744000000000     0.184500000000     0.107500000000     0.0316809  
C        C      0.648400000000     0.241400000000     0.171200000000     0.0316809  
C        C      0.270500000000     0.699600000000     0.970400000000     0.0316809  
C        C      0.207900000000     0.685000000000     0.064200000000     0.0316809  
C        C      0.369800000000     0.642900000000     0.944500000000     0.0316809  
C        C      0.247600000000     0.610500000000     0.130700000000     0.0316809  
C        C      0.408500000000     0.572300000000     0.012300000000     0.0316809  
C        C      0.345900000000     0.554800000000     0.106400000000     0.0316809  
C        C      0.389100000000     0.478000000000     0.178200000000     0.0316809  
C        C      0.063700000000     0.689100000000     0.672100000000     0.0316809  
C        C      0.983800000000     0.632500000000     0.681100000000     0.0316809  
C        C      0.145600000000     0.673200000000     0.591200000000     0.0316809  
C        C      0.987400000000     0.557000000000     0.609200000000     0.0316809  
C        C      0.150200000000     0.594500000000     0.521300000000     0.0316809  
C        C      0.071000000000     0.537400000000     0.528400000000     0.0316809  
C        C      0.077500000000     0.457000000000     0.450600000000     0.0316809  
C        C      0.249500000000     0.072300000000     0.660100000000     0.0316809  
C        C      0.352000000000     0.061000000000     0.673200000000     0.0316809  
C        C      0.216500000000     0.129700000000     0.579100000000     0.0316809  
C        C      0.420600000000     0.106900000000     0.605700000000     0.0316809  
C        C      0.287500000000     0.175300000000     0.511700000000     0.0316809  
C        C      0.391000000000     0.163700000000     0.523100000000     0.0316809  
C        C      0.468900000000     0.210300000000     0.449700000000     0.0316809  
O        O      0.511000000000     0.933100000000     0.023500000000    -0.287391   
O        O      0.740000000000     0.898560000000     0.769840000000    -0.287391   
O        O      0.554000000000     0.747310000000     0.761110000000    -0.287391   
O        O      0.673700000000     0.721780000000     0.029420000000    -0.287391   
O        O      0.061100000000     0.149870000000     0.244470000000    -0.287391   
O        O      0.159300000000     0.251350000000     0.291190000000    -0.287391   
O        O      0.833100000000     0.236520000000     0.425680000000    -0.287391   
O        O      0.985400000000     0.181370000000     0.466830000000    -0.287391   
O        O      0.509700000000     0.463100000000     0.400100000000    -0.287391   
O        O      0.652800000000     0.377900000000     0.450900000000    -0.287391   
O        O      0.060100000000     0.465100000000     0.194700000000    -0.287391   
O        O      0.935400000000     0.377530000000     0.262070000000    -0.287391   
O        O      0.011000000000     0.023500000000     0.933100000000    -0.287391   
O        O      0.240000000000     0.769840000000     0.898560000000    -0.287391   
O        O      0.054000000000     0.761110000000     0.747310000000    -0.287391   
O        O      0.173700000000     0.029420000000     0.721780000000    -0.287391   
O        O      0.561100000000     0.244470000000     0.149870000000    -0.287391   
O        O      0.659300000000     0.291190000000     0.251350000000    -0.287391   
O        O      0.333100000000     0.425680000000     0.236520000000    -0.287391   
O        O      0.485400000000     0.466830000000     0.181370000000    -0.287391   
O        O      0.009700000000     0.400100000000     0.463100000000    -0.287391   
O        O      0.152800000000     0.450900000000     0.377900000000    -0.287391   
O        O      0.560100000000     0.194700000000     0.465100000000    -0.287391   
O        O      0.435400000000     0.262070000000     0.377530000000    -0.287391   


