data_RURQEB_original

_audit_creation_method RASPA-1.0
_audit_creation_date 2022-1-28
_audit_author_name 'Felipe Lopes de Oliveira <felipe.lopes.oliveira@ibm.com>'

_cell_length_a    10.137
_cell_length_b    10.228
_cell_length_c    12.747
_cell_angle_alpha 74.562
_cell_angle_beta  83.796
_cell_angle_gamma 60.952
_cell_volume      1113.34

_symmetry_cell_setting          triclinic
_symmetry_space_group_name_Hall 'P 1'
_symmetry_space_group_name_H-M  'P 1'
_symmetry_Int_Tables_number     1

_symmetry_equiv_pos_as_xyz 'x,y,z'

loop_
_atom_site_label
_atom_site_type_symbol
_atom_site_fract_x
_atom_site_fract_y
_atom_site_fract_z
_atom_site_charge
Zn       Zn     0.507870000000     0.595430000000     0.714890000000     0.432059   
Zn       Zn     0.845110000000     0.886190000000     0.846190000000     0.432059   
Zn       Zn     0.492130000000     0.404570000000     0.285110000000     0.432059   
Zn       Zn     0.154890000000     0.113810000000     0.153810000000     0.432059   
Zn       Zn     0.500000000000     0.500000000000     0.000000000000     0.432059   
H        H      0.699300000000     0.685500000000     0.007400000000     0.0401052  
H        H      0.684500000000     0.120200000000     0.999000000000     0.0401052  
H        H      0.132000000000     0.818000000000     0.674000000000     0.0401052  
H        H      0.129000000000     0.708000000000     0.990000000000     0.0401052  
H        H      0.719000000000     0.754000000000     0.695000000000     0.0401052  
H        H      0.691000000000     0.228000000000     0.685000000000     0.0401052  
H        H      0.300700000000     0.314500000000     0.992600000000     0.0401052  
H        H      0.315500000000     0.879800000000     0.001000000000     0.0401052  
H        H      0.868000000000     0.182000000000     0.326000000000     0.0401052  
H        H      0.871000000000     0.292000000000     0.010000000000     0.0401052  
H        H      0.281000000000     0.246000000000     0.305000000000     0.0401052  
H        H      0.309000000000     0.772000000000     0.315000000000     0.0401052  
C        C      0.161700000000     0.774300000000     0.747200000000     0.170645   
C        C      0.167600000000     0.708600000000     0.919900000000     0.170645   
C        C      0.697700000000     0.730100000000     0.766400000000     0.170645   
C        C      0.686700000000     0.688600000000     0.935400000000     0.170645   
C        C      0.676500000000     0.237700000000     0.756600000000     0.170645   
C        C      0.669700000000     0.177400000000     0.927000000000     0.170645   
C        C      0.515400000000     0.718200000000     0.492100000000     0.170645   
C        C      0.606000000000     0.739100000000     0.392800000000     0.170645   
C        C      0.697300000000     0.615600000000     0.345500000000     0.170645   
C        C      0.607500000000     0.875800000000     0.344500000000     0.170645   
C        C      0.784000000000     0.630300000000     0.255200000000     0.170645   
C        C      0.694500000000     0.888100000000     0.255500000000     0.170645   
C        C      0.785200000000     0.766100000000     0.211900000000     0.170645   
C        C      0.884800000000     0.779500000000     0.119400000000     0.170645   
C        C      0.838300000000     0.225700000000     0.252800000000     0.170645   
C        C      0.832400000000     0.291400000000     0.080100000000     0.170645   
C        C      0.302300000000     0.269900000000     0.233600000000     0.170645   
C        C      0.313300000000     0.311400000000     0.064600000000     0.170645   
C        C      0.323500000000     0.762300000000     0.243400000000     0.170645   
C        C      0.330300000000     0.822600000000     0.073000000000     0.170645   
C        C      0.484600000000     0.281800000000     0.507900000000     0.170645   
C        C      0.394000000000     0.260900000000     0.607200000000     0.170645   
C        C      0.302700000000     0.384400000000     0.654500000000     0.170645   
C        C      0.392500000000     0.124200000000     0.655500000000     0.170645   
C        C      0.216000000000     0.369700000000     0.744800000000     0.170645   
C        C      0.305500000000     0.111900000000     0.744500000000     0.170645   
C        C      0.214800000000     0.233900000000     0.788100000000     0.170645   
C        C      0.115200000000     0.220500000000     0.880600000000     0.170645   
N        N      0.305500000000     0.684000000000     0.778900000000    -0.125633   
N        N      0.309800000000     0.642900000000     0.890600000000    -0.125633   
N        N      0.069800000000     0.791200000000     0.834000000000    -0.125633   
N        N      0.621800000000     0.655100000000     0.795700000000    -0.125633   
N        N      0.616100000000     0.626500000000     0.908200000000    -0.125633   
N        N      0.741100000000     0.758800000000     0.851000000000    -0.125633   
N        N      0.599900000000     0.368200000000     0.786500000000    -0.125633   
N        N      0.595100000000     0.328800000000     0.898700000000    -0.125633   
N        N      0.723100000000     0.112300000000     0.841100000000    -0.125633   
N        N      0.694500000000     0.316000000000     0.221100000000    -0.125633   
N        N      0.690200000000     0.357100000000     0.109400000000    -0.125633   
N        N      0.930200000000     0.208800000000     0.166000000000    -0.125633   
N        N      0.378200000000     0.344900000000     0.204300000000    -0.125633   
N        N      0.383900000000     0.373500000000     0.091800000000    -0.125633   
N        N      0.258900000000     0.241200000000     0.149000000000    -0.125633   
N        N      0.400100000000     0.631800000000     0.213500000000    -0.125633   
N        N      0.404900000000     0.671200000000     0.101300000000    -0.125633   
N        N      0.276900000000     0.887700000000     0.158900000000    -0.125633   
O        O      0.594500000000     0.612000000000     0.572500000000    -0.236497   
O        O      0.380200000000     0.806000000000     0.492300000000    -0.236497   
O        O      0.023800000000     0.730200000000     0.147800000000    -0.236497   
O        O      0.835700000000     0.833100000000     0.023100000000    -0.236497   
O        O      0.405500000000     0.388000000000     0.427500000000    -0.236497   
O        O      0.619800000000     0.194000000000     0.507700000000    -0.236497   
O        O      0.976200000000     0.269800000000     0.852200000000    -0.236497   
O        O      0.164300000000     0.166900000000     0.976900000000    -0.236497   
F        F      0.698400000000     0.479900000000     0.388100000000    -0.408282   
F        F      0.529400000000     0.996500000000     0.389600000000    -0.408282   
F        F      0.870400000000     0.508200000000     0.213700000000    -0.408282   
F        F      0.693900000000     0.025900000000     0.213700000000    -0.408282   
F        F      0.301600000000     0.520100000000     0.611900000000    -0.408282   
F        F      0.470600000000     0.003500000000     0.610400000000    -0.408282   
F        F      0.129600000000     0.491800000000     0.786300000000    -0.408282   
F        F      0.306100000000     0.974100000000     0.786300000000    -0.408282   


