data_RUTBUE_original

_audit_creation_method RASPA-1.0
_audit_creation_date 2022-1-30
_audit_author_name 'Felipe Lopes de Oliveira <felipe.lopes.oliveira@ibm.com>'

_cell_length_a    11.709
_cell_length_b    11.796
_cell_length_c    12.19
_cell_angle_alpha 76.13
_cell_angle_beta  88.96
_cell_angle_gamma 73.8
_cell_volume      1567.53

_symmetry_cell_setting          triclinic
_symmetry_space_group_name_Hall 'P 1'
_symmetry_space_group_name_H-M  'P 1'
_symmetry_Int_Tables_number     1

_symmetry_equiv_pos_as_xyz 'x,y,z'

loop_
_atom_site_label
_atom_site_type_symbol
_atom_site_fract_x
_atom_site_fract_y
_atom_site_fract_z
_atom_site_charge
Na       Na     0.597300000000     0.091900000000     0.769800000000     1.75983    
Na       Na     0.583500000000     0.079600000000     0.070300000000     1.75983    
Na       Na     0.402700000000     0.908100000000     0.230200000000     1.75983    
Na       Na     0.416500000000     0.920400000000     0.929700000000     1.75983    
Sn       Sn     0.105380000000     0.415850000000     0.910530000000     0.526966   
Sn       Sn     0.913010000000     0.446070000000     0.618110000000     0.526966   
Sn       Sn     0.894620000000     0.584150000000     0.089470000000     0.526966   
Sn       Sn     0.086990000000     0.553930000000     0.381890000000     0.526966   
Te       Te     0.930880000000     0.643060000000     0.862850000000    -0.22088    
Te       Te     0.023250000000     0.270970000000     0.804770000000    -0.22088    
Te       Te     0.968570000000     0.370540000000     0.424140000000    -0.22088    
Te       Te     0.069120000000     0.356940000000     0.137150000000    -0.22088    
Te       Te     0.976750000000     0.729030000000     0.195230000000    -0.22088    
Te       Te     0.031430000000     0.629460000000     0.575860000000    -0.22088    
H        H      0.315900000000     0.463600000000     0.896000000000    -0.0609198  
H        H      0.251400000000     0.517500000000     0.776400000000    -0.0609198  
H        H      0.416900000000     0.341300000000     0.781500000000    -0.0609198  
H        H      0.298800000000     0.327700000000     0.738000000000    -0.0609198  
H        H      0.687900000000     0.564900000000     0.572900000000    -0.0609198  
H        H      0.734700000000     0.615300000000     0.664400000000    -0.0609198  
H        H      0.598900000000     0.500300000000     0.737000000000    -0.0609198  
H        H      0.719600000000     0.453500000000     0.806500000000    -0.0609198  
H        H      0.577300000000     0.748700000000     0.764200000000    -0.0609198  
H        H      0.545400000000     0.874400000000     0.674700000000    -0.0609198  
H        H      0.678800000000     0.805000000000     0.713000000000    -0.0609198  
H        H      0.838100000000     0.110700000000     0.894900000000    -0.0609198  
H        H      0.884500000000     0.007100000000     0.004900000000    -0.0609198  
H        H      0.889600000000     0.975400000000     0.886800000000    -0.0609198  
H        H      0.684100000000     0.536400000000     0.104000000000    -0.0609198  
H        H      0.748600000000     0.482500000000     0.223600000000    -0.0609198  
H        H      0.583100000000     0.658700000000     0.218500000000    -0.0609198  
H        H      0.701200000000     0.672300000000     0.262000000000    -0.0609198  
H        H      0.312100000000     0.435100000000     0.427100000000    -0.0609198  
H        H      0.265300000000     0.384700000000     0.335600000000    -0.0609198  
H        H      0.401100000000     0.499700000000     0.263000000000    -0.0609198  
H        H      0.280400000000     0.546500000000     0.193500000000    -0.0609198  
H        H      0.422700000000     0.251300000000     0.235800000000    -0.0609198  
H        H      0.454600000000     0.125600000000     0.325300000000    -0.0609198  
H        H      0.321200000000     0.195000000000     0.287000000000    -0.0609198  
H        H      0.161900000000     0.889300000000     0.105100000000    -0.0609198  
H        H      0.115500000000     0.992900000000     0.995100000000    -0.0609198  
H        H      0.110400000000     0.024600000000     0.113200000000    -0.0609198  
C        C      0.269600000000     0.448100000000     0.840100000000     0.0951704  
C        C      0.339500000000     0.333800000000     0.803000000000     0.0951704  
C        C      0.353800000000     0.218900000000     0.895900000000     0.0951704  
C        C      0.735200000000     0.542300000000     0.642400000000     0.0951704  
C        C      0.682300000000     0.461300000000     0.734600000000     0.0951704  
C        C      0.697600000000     0.336400000000     0.716500000000     0.0951704  
C        C      0.598700000000     0.823100000000     0.737200000000     0.0951704  
C        C      0.844700000000     0.027400000000     0.931700000000     0.0951704  
C        C      0.730400000000     0.551900000000     0.159900000000     0.0951704  
C        C      0.660500000000     0.666200000000     0.197000000000     0.0951704  
C        C      0.646200000000     0.781100000000     0.104100000000     0.0951704  
C        C      0.264800000000     0.457700000000     0.357600000000     0.0951704  
C        C      0.317700000000     0.538700000000     0.265400000000     0.0951704  
C        C      0.302400000000     0.663600000000     0.283500000000     0.0951704  
C        C      0.401300000000     0.176900000000     0.262800000000     0.0951704  
C        C      0.155300000000     0.972600000000     0.068300000000     0.0951704  
O        O      0.438500000000     0.124200000000     0.893900000000    -0.636573   
O        O      0.277000000000     0.219900000000     0.971600000000    -0.636573   
O        O      0.775900000000     0.299700000000     0.648200000000    -0.636573   
O        O      0.637200000000     0.272700000000     0.770700000000    -0.636573   
O        O      0.590600000000     0.883300000000     0.824700000000    -0.636573   
O        O      0.731500000000     0.011200000000     0.944000000000    -0.636573   
O        O      0.561500000000     0.875800000000     0.106100000000    -0.636573   
O        O      0.723000000000     0.780100000000     0.028400000000    -0.636573   
O        O      0.224100000000     0.700300000000     0.351800000000    -0.636573   
O        O      0.362800000000     0.727300000000     0.229300000000    -0.636573   
O        O      0.409400000000     0.116700000000     0.175300000000    -0.636573   
O        O      0.268500000000     0.988800000000     0.056000000000    -0.636573   


