data_RUVMAX_original

_audit_creation_method RASPA-1.0
_audit_creation_date 2022-1-28
_audit_author_name 'Felipe Lopes de Oliveira <felipe.lopes.oliveira@ibm.com>'

_cell_length_a    12.914
_cell_length_b    12.914
_cell_length_c    14.765
_cell_angle_alpha 91.5224
_cell_angle_beta  91.5224
_cell_angle_gamma 90.3576
_cell_volume      2460.58

_symmetry_cell_setting          triclinic
_symmetry_space_group_name_Hall 'P 1'
_symmetry_space_group_name_H-M  'P 1'
_symmetry_Int_Tables_number     1

_symmetry_equiv_pos_as_xyz 'x,y,z'

loop_
_atom_site_label
_atom_site_type_symbol
_atom_site_fract_x
_atom_site_fract_y
_atom_site_fract_z
_atom_site_charge
Zn       Zn     0.065840000000     0.588840000000     0.774490000000     0.384122   
Zn       Zn     0.411160000000     0.934160000000     0.725510000000     0.384122   
Zn       Zn     0.934160000000     0.411160000000     0.225510000000     0.384122   
Zn       Zn     0.588840000000     0.065840000000     0.274490000000     0.384122   
Zn       Zn     0.618260000000     0.381740000000     0.750000000000     0.384122   
Zn       Zn     0.381740000000     0.618260000000     0.250000000000     0.384122   
H        H      0.842000000000     0.556000000000     0.509000000000     0.0962309  
H        H      0.767900000000     0.476300000000     0.092900000000     0.0962309  
H        H      0.735300000000     0.496100000000     0.943800000000     0.0962309  
H        H      0.004200000000     0.361000000000     0.890300000000     0.0962309  
H        H      0.031000000000     0.342600000000     0.043200000000     0.0962309  
H        H      0.452900000000     0.468700000000     0.625000000000     0.0962309  
H        H      0.320700000000     0.586300000000     0.624600000000     0.0962309  
H        H      0.444000000000     0.158000000000     0.991000000000     0.0962309  
H        H      0.523700000000     0.232100000000     0.407100000000     0.0962309  
H        H      0.503900000000     0.264700000000     0.556200000000     0.0962309  
H        H      0.639000000000     0.995800000000     0.609700000000     0.0962309  
H        H      0.657400000000     0.969000000000     0.456800000000     0.0962309  
H        H      0.531300000000     0.547100000000     0.875000000000     0.0962309  
H        H      0.413700000000     0.679300000000     0.875400000000     0.0962309  
H        H      0.158000000000     0.444000000000     0.491000000000     0.0962309  
H        H      0.232100000000     0.523700000000     0.907100000000     0.0962309  
H        H      0.264700000000     0.503900000000     0.056200000000     0.0962309  
H        H      0.995800000000     0.639000000000     0.109700000000     0.0962309  
H        H      0.969000000000     0.657400000000     0.956800000000     0.0962309  
H        H      0.547100000000     0.531300000000     0.375000000000     0.0962309  
H        H      0.679300000000     0.413700000000     0.375400000000     0.0962309  
H        H      0.556000000000     0.842000000000     0.009000000000     0.0962309  
H        H      0.476300000000     0.767900000000     0.592900000000     0.0962309  
H        H      0.496100000000     0.735300000000     0.443800000000     0.0962309  
H        H      0.361000000000     0.004200000000     0.390300000000     0.0962309  
H        H      0.342600000000     0.031000000000     0.543200000000     0.0962309  
H        H      0.468700000000     0.452900000000     0.125000000000     0.0962309  
H        H      0.586300000000     0.320700000000     0.124600000000     0.0962309  
H        H      0.037000000000     0.963000000000     0.750000000000     0.0962309  
H        H      0.963000000000     0.037000000000     0.250000000000     0.0962309  
C        C      0.852600000000     0.455600000000     0.802300000000     0.0699039  
C        C      0.886800000000     0.510800000000     0.670500000000     0.0699039  
C        C      0.790000000000     0.470600000000     0.666200000000     0.0699039  
C        C      0.947900000000     0.563700000000     0.602400000000     0.0699039  
C        C      0.712400000000     0.458000000000     0.591100000000     0.0699039  
C        C      0.816900000000     0.454300000000     0.051700000000     0.0699039  
C        C      0.797200000000     0.465800000000     0.962500000000     0.0699039  
C        C      0.866500000000     0.433700000000     0.898500000000     0.0699039  
C        C      0.955600000000     0.386000000000     0.930600000000     0.0699039  
C        C      0.971700000000     0.375900000000     0.022500000000     0.0699039  
C        C      0.124100000000     0.799900000000     0.755600000000     0.0699039  
C        C      0.012800000000     0.806800000000     0.765600000000     0.0699039  
C        C      0.442900000000     0.509300000000     0.676900000000     0.0699039  
C        C      0.364800000000     0.581400000000     0.675200000000     0.0699039  
C        C      0.544400000000     0.147400000000     0.697700000000     0.0699039  
C        C      0.489200000000     0.113200000000     0.829500000000     0.0699039  
C        C      0.529400000000     0.210000000000     0.833800000000     0.0699039  
C        C      0.436300000000     0.052100000000     0.897600000000     0.0699039  
C        C      0.542000000000     0.287600000000     0.908900000000     0.0699039  
C        C      0.545700000000     0.183100000000     0.448300000000     0.0699039  
C        C      0.534200000000     0.202800000000     0.537500000000     0.0699039  
C        C      0.566300000000     0.133500000000     0.601500000000     0.0699039  
C        C      0.614000000000     0.044400000000     0.569400000000     0.0699039  
C        C      0.624100000000     0.028300000000     0.477500000000     0.0699039  
C        C      0.200100000000     0.875900000000     0.744400000000     0.0699039  
C        C      0.193200000000     0.987200000000     0.734400000000     0.0699039  
C        C      0.490700000000     0.557100000000     0.823100000000     0.0699039  
C        C      0.418600000000     0.635200000000     0.824800000000     0.0699039  
C        C      0.147400000000     0.544400000000     0.197700000000     0.0699039  
C        C      0.113200000000     0.489200000000     0.329500000000     0.0699039  
C        C      0.210000000000     0.529400000000     0.333800000000     0.0699039  
C        C      0.052100000000     0.436300000000     0.397600000000     0.0699039  
C        C      0.287600000000     0.542000000000     0.408900000000     0.0699039  
C        C      0.183100000000     0.545700000000     0.948300000000     0.0699039  
C        C      0.202800000000     0.534200000000     0.037500000000     0.0699039  
C        C      0.133500000000     0.566300000000     0.101500000000     0.0699039  
C        C      0.044400000000     0.614000000000     0.069400000000     0.0699039  
C        C      0.028300000000     0.624100000000     0.977500000000     0.0699039  
C        C      0.875900000000     0.200100000000     0.244400000000     0.0699039  
C        C      0.987200000000     0.193200000000     0.234400000000     0.0699039  
C        C      0.557100000000     0.490700000000     0.323100000000     0.0699039  
C        C      0.635200000000     0.418600000000     0.324800000000     0.0699039  
C        C      0.455600000000     0.852600000000     0.302300000000     0.0699039  
C        C      0.510800000000     0.886800000000     0.170500000000     0.0699039  
C        C      0.470600000000     0.790000000000     0.166200000000     0.0699039  
C        C      0.563700000000     0.947900000000     0.102400000000     0.0699039  
C        C      0.458000000000     0.712400000000     0.091100000000     0.0699039  
C        C      0.454300000000     0.816900000000     0.551700000000     0.0699039  
C        C      0.465800000000     0.797200000000     0.462500000000     0.0699039  
C        C      0.433700000000     0.866500000000     0.398500000000     0.0699039  
C        C      0.386000000000     0.955600000000     0.430600000000     0.0699039  
C        C      0.375900000000     0.971700000000     0.522500000000     0.0699039  
C        C      0.799900000000     0.124100000000     0.255600000000     0.0699039  
C        C      0.806800000000     0.012800000000     0.265600000000     0.0699039  
C        C      0.509300000000     0.442900000000     0.176900000000     0.0699039  
C        C      0.581400000000     0.364800000000     0.175200000000     0.0699039  
C        C      0.272600000000     0.727400000000     0.750000000000     0.0699039  
C        C      0.353300000000     0.646700000000     0.750000000000     0.0699039  
C        C      0.727400000000     0.272600000000     0.250000000000     0.0699039  
C        C      0.646700000000     0.353300000000     0.250000000000     0.0699039  
N        N      0.928600000000     0.502000000000     0.756300000000    -0.146102   
N        N      0.766000000000     0.435600000000     0.751100000000    -0.146102   
N        N      0.904900000000     0.412300000000     0.082900000000    -0.146102   
N        N      0.171700000000     0.707500000000     0.756800000000    -0.146102   
N        N      0.498000000000     0.071400000000     0.743700000000    -0.146102   
N        N      0.564400000000     0.234000000000     0.748900000000    -0.146102   
N        N      0.587700000000     0.095100000000     0.417100000000    -0.146102   
N        N      0.292500000000     0.828300000000     0.743200000000    -0.146102   
N        N      0.071400000000     0.498000000000     0.243700000000    -0.146102   
N        N      0.234000000000     0.564400000000     0.248900000000    -0.146102   
N        N      0.095100000000     0.587700000000     0.917100000000    -0.146102   
N        N      0.828300000000     0.292500000000     0.243200000000    -0.146102   
N        N      0.502000000000     0.928600000000     0.256300000000    -0.146102   
N        N      0.435600000000     0.766000000000     0.251100000000    -0.146102   
N        N      0.412300000000     0.904900000000     0.582900000000    -0.146102   
N        N      0.707500000000     0.171700000000     0.256800000000    -0.146102   
N        N      0.505800000000     0.494200000000     0.750000000000    -0.146102   
N        N      0.494200000000     0.505800000000     0.250000000000    -0.146102   
O        O      0.036700000000     0.594900000000     0.624100000000    -0.281502   
O        O      0.907300000000     0.576100000000     0.523100000000    -0.281502   
O        O      0.631400000000     0.408600000000     0.608400000000    -0.281502   
O        O      0.731600000000     0.495600000000     0.516400000000    -0.281502   
O        O      0.964000000000     0.726000000000     0.780200000000    -0.281502   
O        O      0.969200000000     0.896000000000     0.760500000000    -0.281502   
O        O      0.405100000000     0.963300000000     0.875900000000    -0.281502   
O        O      0.423900000000     0.092700000000     0.976900000000    -0.281502   
O        O      0.591400000000     0.368600000000     0.891600000000    -0.281502   
O        O      0.504400000000     0.268400000000     0.983600000000    -0.281502   
O        O      0.274000000000     0.036000000000     0.719800000000    -0.281502   
O        O      0.104000000000     0.030800000000     0.739500000000    -0.281502   
O        O      0.963300000000     0.405100000000     0.375900000000    -0.281502   
O        O      0.092700000000     0.423900000000     0.476900000000    -0.281502   
O        O      0.368600000000     0.591400000000     0.391600000000    -0.281502   
O        O      0.268400000000     0.504400000000     0.483600000000    -0.281502   
O        O      0.036000000000     0.274000000000     0.219800000000    -0.281502   
O        O      0.030800000000     0.104000000000     0.239500000000    -0.281502   
O        O      0.594900000000     0.036700000000     0.124100000000    -0.281502   
O        O      0.576100000000     0.907300000000     0.023100000000    -0.281502   
O        O      0.408600000000     0.631400000000     0.108400000000    -0.281502   
O        O      0.495600000000     0.731600000000     0.016400000000    -0.281502   
O        O      0.726000000000     0.964000000000     0.280200000000    -0.281502   
O        O      0.896000000000     0.969200000000     0.260500000000    -0.281502   


