data_SABVOH_original

_audit_creation_method RASPA-1.0
_audit_creation_date 2022-1-29
_audit_author_name 'Felipe Lopes de Oliveira <felipe.lopes.oliveira@ibm.com>'

_cell_length_a    6.6284
_cell_length_b    12.1816
_cell_length_c    17.129
_cell_angle_alpha 90
_cell_angle_beta  90
_cell_angle_gamma 90
_cell_volume      1383.07

_symmetry_cell_setting          triclinic
_symmetry_space_group_name_Hall 'P 1'
_symmetry_space_group_name_H-M  'P 1'
_symmetry_Int_Tables_number     1

_symmetry_equiv_pos_as_xyz 'x,y,z'

loop_
_atom_site_label
_atom_site_type_symbol
_atom_site_fract_x
_atom_site_fract_y
_atom_site_fract_z
_atom_site_charge
Al       Al     0.008150000000     0.998910000000     0.001840000000     19.2206    
Al       Al     0.007000000000     0.496310000000     0.502460000000     19.2206    
Al       Al     0.508040000000     0.996280000000     0.001800000000     19.2206    
Al       Al     0.508260000000     0.499950000000     0.501490000000     19.2206    
H        H      0.079280000000     0.171000000000     0.203440000000     0.4179     
H        H      0.079550000000     0.275420000000     0.325730000000     0.4179     
H        H      0.928860000000     0.670060000000     0.299060000000     0.4179     
H        H      0.928680000000     0.773570000000     0.176100000000     0.4179     
H        H      0.579570000000     0.830250000000     0.796740000000     0.4179     
H        H      0.579720000000     0.724930000000     0.674860000000     0.4179     
H        H      0.428600000000     0.326520000000     0.704770000000     0.4179     
H        H      0.428770000000     0.222210000000     0.827310000000     0.4179     
H        H      0.930470000000     0.829290000000     0.797090000000     0.4179     
H        H      0.930710000000     0.723840000000     0.675140000000     0.4179     
H        H      0.077460000000     0.327040000000     0.704890000000     0.4179     
H        H      0.077450000000     0.223210000000     0.827340000000     0.4179     
H        H      0.430770000000     0.171750000000     0.203140000000     0.4179     
H        H      0.430370000000     0.276550000000     0.325340000000     0.4179     
H        H      0.577420000000     0.669550000000     0.298970000000     0.4179     
H        H      0.578020000000     0.772640000000     0.176170000000     0.4179     
H        H      0.260190000000     0.369790000000     0.514160000000     0.4179     
H        H      0.760470000000     0.628870000000     0.502150000000     0.4179     
H        H      0.260040000000     0.125430000000     0.018410000000     0.4179     
H        H      0.760070000000     0.867450000000     0.999650000000     0.4179     
C        C      0.936700000000     0.195020000000     0.228720000000     0.60487    
C        C      0.936810000000     0.254170000000     0.299440000000     0.60487    
C        C      0.071400000000     0.692560000000     0.273180000000     0.60487    
C        C      0.071780000000     0.750980000000     0.201920000000     0.60487    
C        C      0.436700000000     0.806730000000     0.771420000000     0.60487    
C        C      0.436850000000     0.747190000000     0.700820000000     0.60487    
C        C      0.571140000000     0.302250000000     0.729870000000     0.60487    
C        C      0.571580000000     0.243610000000     0.800870000000     0.60487    
C        C      0.073440000000     0.806140000000     0.771550000000     0.60487    
C        C      0.073620000000     0.746450000000     0.700970000000     0.60487    
C        C      0.934500000000     0.302530000000     0.729940000000     0.60487    
C        C      0.934870000000     0.244200000000     0.800900000000     0.60487    
C        C      0.573400000000     0.195480000000     0.228570000000     0.60487    
C        C      0.573380000000     0.254880000000     0.299260000000     0.60487    
C        C      0.434520000000     0.692250000000     0.273130000000     0.60487    
C        C      0.435070000000     0.750390000000     0.201910000000     0.60487    
C        C      0.755810000000     0.362760000000     0.404990000000     0.60487    
C        C      0.755780000000     0.106470000000     0.114100000000     0.60487    
C        C      0.755180000000     0.287380000000     0.335040000000     0.60487    
C        C      0.755120000000     0.167570000000     0.190730000000     0.60487    
C        C      0.255250000000     0.859410000000     0.096480000000     0.60487    
C        C      0.253660000000     0.605740000000     0.388570000000     0.60487    
C        C      0.253900000000     0.783010000000     0.165790000000     0.60487    
C        C      0.253170000000     0.665100000000     0.311160000000     0.60487    
C        C      0.255990000000     0.634820000000     0.597270000000     0.60487    
C        C      0.255460000000     0.892950000000     0.887100000000     0.60487    
C        C      0.255450000000     0.713000000000     0.665470000000     0.60487    
C        C      0.254970000000     0.833930000000     0.809560000000     0.60487    
C        C      0.755050000000     0.134390000000     0.906020000000     0.60487    
C        C      0.753730000000     0.388940000000     0.614170000000     0.60487    
C        C      0.753670000000     0.210890000000     0.836580000000     0.60487    
C        C      0.753120000000     0.328910000000     0.691360000000     0.60487    
O        O      0.927560000000     0.081890000000     0.082950000000    -5.2298     
O        O      0.927990000000     0.393870000000     0.433120000000    -5.2298     
O        O      0.083100000000     0.578350000000     0.419580000000    -5.2298     
O        O      0.084860000000     0.894970000000     0.070250000000    -5.2298     
O        O      0.427460000000     0.916540000000     0.918680000000    -5.2298     
O        O      0.428010000000     0.603100000000     0.569640000000    -5.2298     
O        O      0.583150000000     0.416880000000     0.583520000000    -5.2298     
O        O      0.584390000000     0.099140000000     0.932500000000    -5.2298     
O        O      0.084230000000     0.919040000000     0.918290000000    -5.2298     
O        O      0.085910000000     0.598580000000     0.571710000000    -5.2298     
O        O      0.926350000000     0.412460000000     0.582930000000    -5.2298     
O        O      0.927490000000     0.102420000000     0.933370000000    -5.2298     
O        O      0.585000000000     0.079000000000     0.083480000000    -5.2298     
O        O      0.585220000000     0.397970000000     0.431360000000    -5.2298     
O        O      0.426180000000     0.582330000000     0.419980000000    -5.2298     
O        O      0.427440000000     0.891410000000     0.069160000000    -5.2298     
O        O      0.759040000000     0.938240000000     0.000330000000    -5.2298     
O        O      0.259150000000     0.439970000000     0.507520000000    -5.2298     
O        O      0.259080000000     0.055890000000     0.009010000000    -5.2298     
O        O      0.759320000000     0.558040000000     0.501210000000    -5.2298     


