data_SADMOB_original

_audit_creation_method RASPA-1.0
_audit_creation_date 2022-1-28
_audit_author_name 'Felipe Lopes de Oliveira <felipe.lopes.oliveira@ibm.com>'

_cell_length_a    6.889
_cell_length_b    11.1093
_cell_length_c    11.1093
_cell_angle_alpha 60.396
_cell_angle_beta  73.654
_cell_angle_gamma 73.6537
_cell_volume      698.94

_symmetry_cell_setting          triclinic
_symmetry_space_group_name_Hall 'P 1'
_symmetry_space_group_name_H-M  'P 1'
_symmetry_Int_Tables_number     1

_symmetry_equiv_pos_as_xyz 'x,y,z'

loop_
_atom_site_label
_atom_site_type_symbol
_atom_site_fract_x
_atom_site_fract_y
_atom_site_fract_z
_atom_site_charge
Fe       Fe     0.000000000000     0.000000000000     0.000000000000     1.00577    
Fe       Fe     0.500000000000     0.000000000000     0.000000000000     1.00577    
H        H      0.781400000000     0.400900000000     0.958300000000     0.0532512  
H        H      0.343800000000     0.391200000000     0.017000000000     0.0532512  
H        H      0.718600000000     0.041700000000     0.599100000000     0.0532512  
H        H      0.156200000000     0.983000000000     0.608800000000     0.0532512  
H        H      0.218600000000     0.599100000000     0.041700000000     0.0532512  
H        H      0.656200000000     0.608800000000     0.983000000000     0.0532512  
H        H      0.281400000000     0.958300000000     0.400900000000     0.0532512  
H        H      0.843800000000     0.017000000000     0.391200000000     0.0532512  
C        C      0.073000000000     0.378800000000     0.985600000000     0.0705896  
C        C      0.872500000000     0.442300000000     0.975700000000     0.0705896  
C        C      0.200500000000     0.436500000000     0.009900000000     0.0705896  
C        C      0.151300000000     0.248800000000     0.970200000000     0.0705896  
C        C      0.427000000000     0.014400000000     0.621200000000     0.0705896  
C        C      0.627500000000     0.024300000000     0.557700000000     0.0705896  
C        C      0.299500000000     0.990100000000     0.563500000000     0.0705896  
C        C      0.348700000000     0.029800000000     0.751200000000     0.0705896  
C        C      0.927000000000     0.621200000000     0.014400000000     0.0705896  
C        C      0.127500000000     0.557700000000     0.024300000000     0.0705896  
C        C      0.799500000000     0.563500000000     0.990100000000     0.0705896  
C        C      0.848700000000     0.751200000000     0.029800000000     0.0705896  
C        C      0.573000000000     0.985600000000     0.378800000000     0.0705896  
C        C      0.372500000000     0.975700000000     0.442300000000     0.0705896  
C        C      0.700500000000     0.009900000000     0.436500000000     0.0705896  
C        C      0.651300000000     0.970200000000     0.248800000000     0.0705896  
O        O      0.032800000000     0.194800000000     0.948600000000    -0.356699   
O        O      0.337500000000     0.190400000000     0.978600000000    -0.356699   
O        O      0.467200000000     0.051400000000     0.805200000000    -0.356699   
O        O      0.162500000000     0.021400000000     0.809600000000    -0.356699   
O        O      0.967200000000     0.805200000000     0.051400000000    -0.356699   
O        O      0.662500000000     0.809600000000     0.021400000000    -0.356699   
O        O      0.532800000000     0.948600000000     0.194800000000    -0.356699   
O        O      0.837500000000     0.978600000000     0.190400000000    -0.356699   
O        O      0.250000000000     0.909200000000     0.090800000000    -0.356699   
O        O      0.750000000000     0.090800000000     0.909200000000    -0.356699   


