data_SAHYOQ03_original

_audit_creation_method RASPA-1.0
_audit_creation_date 2022-1-28
_audit_author_name 'Felipe Lopes de Oliveira <felipe.lopes.oliveira@ibm.com>'

_cell_length_a    18.283
_cell_length_b    18.283
_cell_length_c    18.283
_cell_angle_alpha 60
_cell_angle_beta  60
_cell_angle_gamma 60
_cell_volume      4321.43

_symmetry_cell_setting          triclinic
_symmetry_space_group_name_Hall 'P 1'
_symmetry_space_group_name_H-M  'P 1'
_symmetry_Int_Tables_number     1

_symmetry_equiv_pos_as_xyz 'x,y,z'

loop_
_atom_site_label
_atom_site_type_symbol
_atom_site_fract_x
_atom_site_fract_y
_atom_site_fract_z
_atom_site_charge
Zn       Zn     0.206700000000     0.379900000000     0.206700000000     0.480194   
Zn       Zn     0.379900000000     0.206700000000     0.206700000000     0.480194   
Zn       Zn     0.206700000000     0.206700000000     0.206700000000     0.480194   
Zn       Zn     0.206700000000     0.206700000000     0.379900000000     0.480194   
Zn       Zn     0.620100000000     0.793300000000     0.793300000000     0.480194   
Zn       Zn     0.793300000000     0.620100000000     0.793300000000     0.480194   
Zn       Zn     0.793300000000     0.793300000000     0.793300000000     0.480194   
Zn       Zn     0.793300000000     0.793300000000     0.620100000000     0.480194   
H        H      0.049400000000     0.563800000000     0.049400000000     0.0546062  
H        H      0.563800000000     0.049400000000     0.337400000000     0.0546062  
H        H      0.049400000000     0.337400000000     0.049400000000     0.0546062  
H        H      0.337400000000     0.049400000000     0.563800000000     0.0546062  
H        H      0.049400000000     0.049400000000     0.337400000000     0.0546062  
H        H      0.563800000000     0.337400000000     0.049400000000     0.0546062  
H        H      0.049400000000     0.049400000000     0.563800000000     0.0546062  
H        H      0.337400000000     0.563800000000     0.049400000000     0.0546062  
H        H      0.049400000000     0.337400000000     0.563800000000     0.0546062  
H        H      0.563800000000     0.049400000000     0.049400000000     0.0546062  
H        H      0.049400000000     0.563800000000     0.337400000000     0.0546062  
H        H      0.337400000000     0.049400000000     0.049400000000     0.0546062  
H        H      0.436200000000     0.950600000000     0.950600000000     0.0546062  
H        H      0.950600000000     0.436200000000     0.662600000000     0.0546062  
H        H      0.662600000000     0.950600000000     0.950600000000     0.0546062  
H        H      0.950600000000     0.662600000000     0.436200000000     0.0546062  
H        H      0.950600000000     0.950600000000     0.662600000000     0.0546062  
H        H      0.662600000000     0.436200000000     0.950600000000     0.0546062  
H        H      0.950600000000     0.950600000000     0.436200000000     0.0546062  
H        H      0.436200000000     0.662600000000     0.950600000000     0.0546062  
H        H      0.662600000000     0.950600000000     0.436200000000     0.0546062  
H        H      0.950600000000     0.436200000000     0.950600000000     0.0546062  
H        H      0.436200000000     0.950600000000     0.662600000000     0.0546062  
H        H      0.950600000000     0.662600000000     0.950600000000     0.0546062  
C        C      0.027000000000     0.538200000000     0.027000000000     0.0600809  
C        C      0.538200000000     0.027000000000     0.407800000000     0.0600809  
C        C      0.027000000000     0.407800000000     0.027000000000     0.0600809  
C        C      0.407800000000     0.027000000000     0.538200000000     0.0600809  
C        C      0.027000000000     0.027000000000     0.407800000000     0.0600809  
C        C      0.538200000000     0.407800000000     0.027000000000     0.0600809  
C        C      0.027000000000     0.027000000000     0.538200000000     0.0600809  
C        C      0.407800000000     0.538200000000     0.027000000000     0.0600809  
C        C      0.027000000000     0.407800000000     0.538200000000     0.0600809  
C        C      0.538200000000     0.027000000000     0.027000000000     0.0600809  
C        C      0.027000000000     0.538200000000     0.407800000000     0.0600809  
C        C      0.407800000000     0.027000000000     0.027000000000     0.0600809  
C        C      0.461800000000     0.973000000000     0.973000000000     0.0600809  
C        C      0.973000000000     0.461800000000     0.592200000000     0.0600809  
C        C      0.592200000000     0.973000000000     0.973000000000     0.0600809  
C        C      0.973000000000     0.592200000000     0.461800000000     0.0600809  
C        C      0.973000000000     0.973000000000     0.592200000000     0.0600809  
C        C      0.592200000000     0.461800000000     0.973000000000     0.0600809  
C        C      0.973000000000     0.973000000000     0.461800000000     0.0600809  
C        C      0.461800000000     0.592200000000     0.973000000000     0.0600809  
C        C      0.592200000000     0.973000000000     0.461800000000     0.0600809  
C        C      0.973000000000     0.461800000000     0.973000000000     0.0600809  
C        C      0.461800000000     0.973000000000     0.592200000000     0.0600809  
C        C      0.973000000000     0.592200000000     0.973000000000     0.0600809  
C        C      0.110700000000     0.389300000000     0.110700000000     0.0600809  
C        C      0.054200000000     0.445800000000     0.054200000000     0.0600809  
C        C      0.389300000000     0.110700000000     0.389300000000     0.0600809  
C        C      0.445800000000     0.054200000000     0.445800000000     0.0600809  
C        C      0.110700000000     0.110700000000     0.389300000000     0.0600809  
C        C      0.054200000000     0.054200000000     0.445800000000     0.0600809  
C        C      0.389300000000     0.389300000000     0.110700000000     0.0600809  
C        C      0.445800000000     0.445800000000     0.054200000000     0.0600809  
C        C      0.110700000000     0.389300000000     0.389300000000     0.0600809  
C        C      0.054200000000     0.445800000000     0.445800000000     0.0600809  
C        C      0.389300000000     0.110700000000     0.110700000000     0.0600809  
C        C      0.445800000000     0.054200000000     0.054200000000     0.0600809  
C        C      0.610700000000     0.889300000000     0.889300000000     0.0600809  
C        C      0.554200000000     0.945800000000     0.945800000000     0.0600809  
C        C      0.889300000000     0.610700000000     0.610700000000     0.0600809  
C        C      0.945800000000     0.554200000000     0.554200000000     0.0600809  
C        C      0.889300000000     0.889300000000     0.610700000000     0.0600809  
C        C      0.945800000000     0.945800000000     0.554200000000     0.0600809  
C        C      0.610700000000     0.610700000000     0.889300000000     0.0600809  
C        C      0.554200000000     0.554200000000     0.945800000000     0.0600809  
C        C      0.610700000000     0.889300000000     0.610700000000     0.0600809  
C        C      0.554200000000     0.945800000000     0.554200000000     0.0600809  
C        C      0.889300000000     0.610700000000     0.889300000000     0.0600809  
C        C      0.945800000000     0.554200000000     0.945800000000     0.0600809  
O        O      0.250000000000     0.250000000000     0.250000000000    -0.309076   
O        O      0.750000000000     0.750000000000     0.750000000000    -0.309076   
O        O      0.134300000000     0.426700000000     0.134300000000    -0.309076   
O        O      0.426700000000     0.134300000000     0.304700000000    -0.309076   
O        O      0.134300000000     0.304700000000     0.134300000000    -0.309076   
O        O      0.304700000000     0.134300000000     0.426700000000    -0.309076   
O        O      0.134300000000     0.134300000000     0.304700000000    -0.309076   
O        O      0.426700000000     0.304700000000     0.134300000000    -0.309076   
O        O      0.134300000000     0.134300000000     0.426700000000    -0.309076   
O        O      0.304700000000     0.426700000000     0.134300000000    -0.309076   
O        O      0.134300000000     0.304700000000     0.426700000000    -0.309076   
O        O      0.426700000000     0.134300000000     0.134300000000    -0.309076   
O        O      0.134300000000     0.426700000000     0.304700000000    -0.309076   
O        O      0.304700000000     0.134300000000     0.134300000000    -0.309076   
O        O      0.573300000000     0.865700000000     0.865700000000    -0.309076   
O        O      0.865700000000     0.573300000000     0.695300000000    -0.309076   
O        O      0.695300000000     0.865700000000     0.865700000000    -0.309076   
O        O      0.865700000000     0.695300000000     0.573300000000    -0.309076   
O        O      0.865700000000     0.865700000000     0.695300000000    -0.309076   
O        O      0.695300000000     0.573300000000     0.865700000000    -0.309076   
O        O      0.865700000000     0.865700000000     0.573300000000    -0.309076   
O        O      0.573300000000     0.695300000000     0.865700000000    -0.309076   
O        O      0.695300000000     0.865700000000     0.573300000000    -0.309076   
O        O      0.865700000000     0.573300000000     0.865700000000    -0.309076   
O        O      0.573300000000     0.865700000000     0.695300000000    -0.309076   
O        O      0.865700000000     0.695300000000     0.865700000000    -0.309076   


