data_SAKRED_original

_audit_creation_method RASPA-1.0
_audit_creation_date 2022-1-31
_audit_author_name 'Felipe Lopes de Oliveira <felipe.lopes.oliveira@ibm.com>'

_cell_length_a    10.337
_cell_length_b    11.649
_cell_length_c    20.464
_cell_angle_alpha 90
_cell_angle_beta  90
_cell_angle_gamma 90
_cell_volume      2464.19

_symmetry_cell_setting          triclinic
_symmetry_space_group_name_Hall 'P 1'
_symmetry_space_group_name_H-M  'P 1'
_symmetry_Int_Tables_number     1

_symmetry_equiv_pos_as_xyz 'x,y,z'

loop_
_atom_site_label
_atom_site_type_symbol
_atom_site_fract_x
_atom_site_fract_y
_atom_site_fract_z
_atom_site_charge
Zn       Zn     0.956460000000     0.577660000000     0.006780000000     0.470732   
Zn       Zn     0.643000000000     0.675210000000     0.007280000000     0.470732   
Zn       Zn     0.543540000000     0.422340000000     0.506780000000     0.470732   
Zn       Zn     0.857000000000     0.324790000000     0.507280000000     0.470732   
Zn       Zn     0.043540000000     0.077660000000     0.493220000000     0.470732   
Zn       Zn     0.357000000000     0.175210000000     0.492720000000     0.470732   
Zn       Zn     0.456460000000     0.922340000000     0.993220000000     0.470732   
Zn       Zn     0.143000000000     0.824790000000     0.992720000000     0.470732   
H        H      0.940400000000     0.472600000000     0.811600000000     0.119103   
H        H      0.565400000000     0.561500000000     0.815000000000     0.119103   
H        H      0.922700000000     0.425700000000     0.701400000000     0.119103   
H        H      0.546900000000     0.515600000000     0.705300000000     0.119103   
H        H      0.736400000000     0.974600000000     0.992700000000     0.119103   
H        H      0.649900000000     0.960800000000     0.886400000000     0.119103   
H        H      0.801400000000     0.961500000000     0.883500000000     0.119103   
H        H      0.725700000000     0.845900000000     0.875300000000     0.119103   
H        H      0.559600000000     0.527400000000     0.311600000000     0.119103   
H        H      0.934600000000     0.438500000000     0.315000000000     0.119103   
H        H      0.577300000000     0.574300000000     0.201400000000     0.119103   
H        H      0.953100000000     0.484400000000     0.205300000000     0.119103   
H        H      0.763600000000     0.025400000000     0.492700000000     0.119103   
H        H      0.850100000000     0.039200000000     0.386400000000     0.119103   
H        H      0.698600000000     0.038500000000     0.383500000000     0.119103   
H        H      0.774300000000     0.154100000000     0.375300000000     0.119103   
H        H      0.059600000000     0.972600000000     0.688400000000     0.119103   
H        H      0.434600000000     0.061500000000     0.685000000000     0.119103   
H        H      0.077300000000     0.925700000000     0.798600000000     0.119103   
H        H      0.453100000000     0.015600000000     0.794700000000     0.119103   
H        H      0.263600000000     0.474600000000     0.507300000000     0.119103   
H        H      0.350100000000     0.460800000000     0.613600000000     0.119103   
H        H      0.198600000000     0.461500000000     0.616500000000     0.119103   
H        H      0.274300000000     0.345900000000     0.624700000000     0.119103   
H        H      0.440400000000     0.027400000000     0.188400000000     0.119103   
H        H      0.065400000000     0.938500000000     0.185000000000     0.119103   
H        H      0.422700000000     0.074300000000     0.298600000000     0.119103   
H        H      0.046900000000     0.984400000000     0.294700000000     0.119103   
H        H      0.236400000000     0.525400000000     0.007300000000     0.119103   
H        H      0.149900000000     0.539200000000     0.113600000000     0.119103   
H        H      0.301400000000     0.538500000000     0.116500000000     0.119103   
H        H      0.225700000000     0.654100000000     0.124700000000     0.119103   
C        C      0.767100000000     0.553300000000     0.895320000000     0.0142057  
C        C      0.754600000000     0.522200000000     0.824250000000     0.0142057  
C        C      0.861600000000     0.481300000000     0.790250000000     0.0142057  
C        C      0.637100000000     0.534600000000     0.792270000000     0.0142057  
C        C      0.851100000000     0.453300000000     0.723950000000     0.0142057  
C        C      0.626000000000     0.507100000000     0.726440000000     0.0142057  
C        C      0.733400000000     0.466800000000     0.691910000000     0.0142057  
C        C      0.722800000000     0.438000000000     0.620610000000     0.0142057  
C        C      0.854000000000     0.833000000000     0.987900000000     0.0142057  
C        C      0.732400000000     0.899600000000     0.971040000000     0.0142057  
C        C      0.726800000000     0.918700000000     0.897200000000     0.0142057  
C        C      0.732900000000     0.446700000000     0.395320000000     0.0142057  
C        C      0.745400000000     0.477800000000     0.324250000000     0.0142057  
C        C      0.638400000000     0.518700000000     0.290250000000     0.0142057  
C        C      0.862900000000     0.465400000000     0.292270000000     0.0142057  
C        C      0.648900000000     0.546700000000     0.223950000000     0.0142057  
C        C      0.874000000000     0.492900000000     0.226440000000     0.0142057  
C        C      0.766600000000     0.533200000000     0.191910000000     0.0142057  
C        C      0.777200000000     0.562000000000     0.120610000000     0.0142057  
C        C      0.646000000000     0.167000000000     0.487900000000     0.0142057  
C        C      0.767600000000     0.100400000000     0.471040000000     0.0142057  
C        C      0.773200000000     0.081300000000     0.397200000000     0.0142057  
C        C      0.232900000000     0.053300000000     0.604680000000     0.0142057  
C        C      0.245400000000     0.022200000000     0.675750000000     0.0142057  
C        C      0.138400000000     0.981300000000     0.709750000000     0.0142057  
C        C      0.362900000000     0.034600000000     0.707730000000     0.0142057  
C        C      0.148900000000     0.953300000000     0.776050000000     0.0142057  
C        C      0.374000000000     0.007100000000     0.773560000000     0.0142057  
C        C      0.266600000000     0.966800000000     0.808090000000     0.0142057  
C        C      0.277200000000     0.938000000000     0.879390000000     0.0142057  
C        C      0.146000000000     0.333000000000     0.512100000000     0.0142057  
C        C      0.267600000000     0.399600000000     0.528960000000     0.0142057  
C        C      0.273200000000     0.418700000000     0.602800000000     0.0142057  
C        C      0.267100000000     0.946700000000     0.104680000000     0.0142057  
C        C      0.254600000000     0.977800000000     0.175750000000     0.0142057  
C        C      0.361600000000     0.018700000000     0.209750000000     0.0142057  
C        C      0.137100000000     0.965400000000     0.207730000000     0.0142057  
C        C      0.351100000000     0.046700000000     0.276050000000     0.0142057  
C        C      0.126000000000     0.992900000000     0.273560000000     0.0142057  
C        C      0.233400000000     0.033200000000     0.308090000000     0.0142057  
C        C      0.222800000000     0.062000000000     0.379390000000     0.0142057  
C        C      0.354000000000     0.667000000000     0.012100000000     0.0142057  
C        C      0.232400000000     0.600400000000     0.028960000000     0.0142057  
C        C      0.226800000000     0.581300000000     0.102800000000     0.0142057  
O        O      0.667100000000     0.585900000000     0.924470000000    -0.292936   
O        O      0.878100000000     0.542100000000     0.920100000000    -0.292936   
O        O      0.618200000000     0.464700000000     0.592750000000    -0.292936   
O        O      0.820000000000     0.391200000000     0.595090000000    -0.292936   
O        O      0.841400000000     0.729200000000     0.005350000000    -0.292936   
O        O      0.959700000000     0.884400000000     0.981520000000    -0.292936   
O        O      0.619900000000     0.841200000000     0.992940000000    -0.292936   
O        O      0.832900000000     0.414100000000     0.424470000000    -0.292936   
O        O      0.621900000000     0.457900000000     0.420100000000    -0.292936   
O        O      0.881800000000     0.535300000000     0.092750000000    -0.292936   
O        O      0.680000000000     0.608800000000     0.095090000000    -0.292936   
O        O      0.658600000000     0.270800000000     0.505350000000    -0.292936   
O        O      0.540300000000     0.115600000000     0.481520000000    -0.292936   
O        O      0.880100000000     0.158800000000     0.492940000000    -0.292936   
O        O      0.332900000000     0.085900000000     0.575530000000    -0.292936   
O        O      0.121900000000     0.042100000000     0.579900000000    -0.292936   
O        O      0.381800000000     0.964700000000     0.907250000000    -0.292936   
O        O      0.180000000000     0.891200000000     0.904910000000    -0.292936   
O        O      0.158600000000     0.229200000000     0.494650000000    -0.292936   
O        O      0.040300000000     0.384400000000     0.518480000000    -0.292936   
O        O      0.380100000000     0.341200000000     0.507060000000    -0.292936   
O        O      0.167100000000     0.914100000000     0.075530000000    -0.292936   
O        O      0.378100000000     0.957900000000     0.079900000000    -0.292936   
O        O      0.118200000000     0.035300000000     0.407250000000    -0.292936   
O        O      0.320000000000     0.108800000000     0.404910000000    -0.292936   
O        O      0.341400000000     0.770800000000     0.994650000000    -0.292936   
O        O      0.459700000000     0.615600000000     0.018480000000    -0.292936   
O        O      0.119900000000     0.658800000000     0.007060000000    -0.292936   


