data_SAKRAZ_original

_audit_creation_method RASPA-1.0
_audit_creation_date 2022-1-28
_audit_author_name 'Felipe Lopes de Oliveira <felipe.lopes.oliveira@ibm.com>'

_cell_length_a    10.334
_cell_length_b    11.672
_cell_length_c    20.341
_cell_angle_alpha 90
_cell_angle_beta  90
_cell_angle_gamma 90
_cell_volume      2453.5

_symmetry_cell_setting          triclinic
_symmetry_space_group_name_Hall 'P 1'
_symmetry_space_group_name_H-M  'P 1'
_symmetry_Int_Tables_number     1

_symmetry_equiv_pos_as_xyz 'x,y,z'

loop_
_atom_site_label
_atom_site_type_symbol
_atom_site_fract_x
_atom_site_fract_y
_atom_site_fract_z
_atom_site_charge
Zn       Zn     0.152690000000     0.674870000000     0.011470000000     0.470839   
Zn       Zn     0.465620000000     0.580530000000     0.007170000000     0.470839   
Zn       Zn     0.347310000000     0.325130000000     0.511470000000     0.470839   
Zn       Zn     0.034380000000     0.419470000000     0.507170000000     0.470839   
Zn       Zn     0.847310000000     0.174870000000     0.488540000000     0.470839   
Zn       Zn     0.534380000000     0.080530000000     0.492830000000     0.470839   
Zn       Zn     0.652690000000     0.825130000000     0.988540000000     0.470839   
Zn       Zn     0.965620000000     0.919470000000     0.992830000000     0.470839   
H        H      0.064100000000     0.560700000000     0.821900000000     0.121354   
H        H      0.440000000000     0.471900000000     0.808000000000     0.121354   
H        H      0.034800000000     0.514600000000     0.711400000000     0.121354   
H        H      0.411900000000     0.432000000000     0.697600000000     0.121354   
H        H      0.244100000000     0.972300000000     0.987200000000     0.121354   
H        H      0.156700000000     0.946700000000     0.881600000000     0.121354   
H        H      0.308200000000     0.946700000000     0.878200000000     0.121354   
H        H      0.231900000000     0.830800000000     0.874400000000     0.121354   
H        H      0.435900000000     0.439300000000     0.321900000000     0.121354   
H        H      0.060000000000     0.528100000000     0.308000000000     0.121354   
H        H      0.465200000000     0.485400000000     0.211400000000     0.121354   
H        H      0.088100000000     0.568000000000     0.197600000000     0.121354   
H        H      0.255900000000     0.027700000000     0.487200000000     0.121354   
H        H      0.343300000000     0.053300000000     0.381600000000     0.121354   
H        H      0.191800000000     0.053300000000     0.378200000000     0.121354   
H        H      0.268100000000     0.169200000000     0.374400000000     0.121354   
H        H      0.935900000000     0.060700000000     0.678100000000     0.121354   
H        H      0.560000000000     0.971900000000     0.692000000000     0.121354   
H        H      0.965200000000     0.014600000000     0.788600000000     0.121354   
H        H      0.588100000000     0.932000000000     0.802400000000     0.121354   
H        H      0.755900000000     0.472300000000     0.512800000000     0.121354   
H        H      0.843300000000     0.446700000000     0.618400000000     0.121354   
H        H      0.691800000000     0.446700000000     0.621800000000     0.121354   
H        H      0.768100000000     0.330800000000     0.625600000000     0.121354   
H        H      0.564100000000     0.939300000000     0.178100000000     0.121354   
H        H      0.940000000000     0.028100000000     0.192000000000     0.121354   
H        H      0.534800000000     0.985400000000     0.288600000000     0.121354   
H        H      0.911900000000     0.068000000000     0.302400000000     0.121354   
H        H      0.744100000000     0.527700000000     0.012800000000     0.121354   
H        H      0.656700000000     0.553300000000     0.118400000000     0.121354   
H        H      0.808200000000     0.553300000000     0.121800000000     0.121354   
H        H      0.731900000000     0.669200000000     0.125600000000     0.121354   
C        C      0.276300000000     0.556400000000     0.896130000000     0.0127978  
C        C      0.256100000000     0.524200000000     0.825490000000     0.0127978  
C        C      0.133700000000     0.535200000000     0.796880000000     0.0127978  
C        C      0.359500000000     0.482700000000     0.788400000000     0.0127978  
C        C      0.116100000000     0.507900000000     0.730600000000     0.0127978  
C        C      0.342400000000     0.457600000000     0.722640000000     0.0127978  
C        C      0.221000000000     0.470700000000     0.693640000000     0.0127978  
C        C      0.205200000000     0.445900000000     0.620830000000     0.0127978  
C        C      0.362500000000     0.831200000000     0.987430000000     0.0127978  
C        C      0.240000000000     0.895100000000     0.968350000000     0.0127978  
C        C      0.233600000000     0.905800000000     0.893720000000     0.0127978  
C        C      0.223700000000     0.443600000000     0.396130000000     0.0127978  
C        C      0.243900000000     0.475800000000     0.325490000000     0.0127978  
C        C      0.366300000000     0.464800000000     0.296880000000     0.0127978  
C        C      0.140500000000     0.517300000000     0.288400000000     0.0127978  
C        C      0.383900000000     0.492100000000     0.230600000000     0.0127978  
C        C      0.157600000000     0.542400000000     0.222640000000     0.0127978  
C        C      0.279000000000     0.529300000000     0.193640000000     0.0127978  
C        C      0.294800000000     0.554100000000     0.120830000000     0.0127978  
C        C      0.137500000000     0.168800000000     0.487430000000     0.0127978  
C        C      0.260000000000     0.104900000000     0.468350000000     0.0127978  
C        C      0.266400000000     0.094200000000     0.393720000000     0.0127978  
C        C      0.723700000000     0.056400000000     0.603870000000     0.0127978  
C        C      0.743900000000     0.024200000000     0.674510000000     0.0127978  
C        C      0.866300000000     0.035200000000     0.703120000000     0.0127978  
C        C      0.640500000000     0.982700000000     0.711600000000     0.0127978  
C        C      0.883900000000     0.007900000000     0.769400000000     0.0127978  
C        C      0.657600000000     0.957600000000     0.777360000000     0.0127978  
C        C      0.779000000000     0.970700000000     0.806360000000     0.0127978  
C        C      0.794800000000     0.945900000000     0.879170000000     0.0127978  
C        C      0.637500000000     0.331200000000     0.512570000000     0.0127978  
C        C      0.760000000000     0.395100000000     0.531650000000     0.0127978  
C        C      0.766400000000     0.405800000000     0.606280000000     0.0127978  
C        C      0.776300000000     0.943600000000     0.103870000000     0.0127978  
C        C      0.756100000000     0.975800000000     0.174510000000     0.0127978  
C        C      0.633700000000     0.964800000000     0.203120000000     0.0127978  
C        C      0.859500000000     0.017300000000     0.211600000000     0.0127978  
C        C      0.616100000000     0.992100000000     0.269400000000     0.0127978  
C        C      0.842400000000     0.042400000000     0.277360000000     0.0127978  
C        C      0.721000000000     0.029300000000     0.306360000000     0.0127978  
C        C      0.705200000000     0.054100000000     0.379170000000     0.0127978  
C        C      0.862500000000     0.668800000000     0.012570000000     0.0127978  
C        C      0.740000000000     0.604900000000     0.031650000000     0.0127978  
C        C      0.733600000000     0.594200000000     0.106280000000     0.0127978  
O        O      0.176600000000     0.582900000000     0.928990000000    -0.293326   
O        O      0.390900000000     0.553800000000     0.917030000000    -0.293326   
O        O      0.094800000000     0.460100000000     0.596660000000    -0.293326   
O        O      0.305600000000     0.416200000000     0.590970000000    -0.293326   
O        O      0.350400000000     0.731240000000     0.009840000000    -0.293326   
O        O      0.468700000000     0.880300000000     0.975860000000    -0.293326   
O        O      0.129300000000     0.838660000000     0.994210000000    -0.293326   
O        O      0.323400000000     0.417100000000     0.428990000000    -0.293326   
O        O      0.109100000000     0.446200000000     0.417030000000    -0.293326   
O        O      0.405200000000     0.539900000000     0.096660000000    -0.293326   
O        O      0.194400000000     0.583800000000     0.090970000000    -0.293326   
O        O      0.149600000000     0.268760000000     0.509840000000    -0.293326   
O        O      0.031300000000     0.119700000000     0.475860000000    -0.293326   
O        O      0.370700000000     0.161340000000     0.494210000000    -0.293326   
O        O      0.823400000000     0.082900000000     0.571010000000    -0.293326   
O        O      0.609100000000     0.053800000000     0.582970000000    -0.293326   
O        O      0.905200000000     0.960100000000     0.903340000000    -0.293326   
O        O      0.694400000000     0.916200000000     0.909030000000    -0.293326   
O        O      0.649600000000     0.231240000000     0.490160000000    -0.293326   
O        O      0.531300000000     0.380300000000     0.524140000000    -0.293326   
O        O      0.870700000000     0.338660000000     0.505790000000    -0.293326   
O        O      0.676600000000     0.917100000000     0.071010000000    -0.293326   
O        O      0.890900000000     0.946200000000     0.082970000000    -0.293326   
O        O      0.594800000000     0.039900000000     0.403340000000    -0.293326   
O        O      0.805600000000     0.083800000000     0.409030000000    -0.293326   
O        O      0.850400000000     0.768760000000     0.990160000000    -0.293326   
O        O      0.968700000000     0.619700000000     0.024140000000    -0.293326   
O        O      0.629300000000     0.661340000000     0.005790000000    -0.293326   


