data_SENWOZ_original

_audit_creation_method RASPA-1.0
_audit_creation_date 2022-1-28
_audit_author_name 'Felipe Lopes de Oliveira <felipe.lopes.oliveira@ibm.com>'

_cell_length_a    13.798
_cell_length_b    14.375
_cell_length_c    15.228
_cell_angle_alpha 90
_cell_angle_beta  90
_cell_angle_gamma 90
_cell_volume      3020.42

_symmetry_cell_setting          triclinic
_symmetry_space_group_name_Hall 'P 1'
_symmetry_space_group_name_H-M  'P 1'
_symmetry_Int_Tables_number     1

_symmetry_equiv_pos_as_xyz 'x,y,z'

loop_
_atom_site_label
_atom_site_type_symbol
_atom_site_fract_x
_atom_site_fract_y
_atom_site_fract_z
_atom_site_charge
Zn       Zn     0.548340000000     0.524270000000     0.960020000000     0.41914    
Zn       Zn     0.708570000000     0.656210000000     0.821530000000     0.41914    
Zn       Zn     0.951660000000     0.475730000000     0.460020000000     0.41914    
Zn       Zn     0.791430000000     0.343790000000     0.321530000000     0.41914    
Zn       Zn     0.451660000000     0.024270000000     0.539980000000     0.41914    
Zn       Zn     0.291430000000     0.156210000000     0.678470000000     0.41914    
Zn       Zn     0.048340000000     0.975730000000     0.039980000000     0.41914    
Zn       Zn     0.208570000000     0.843790000000     0.178470000000     0.41914    
H        H      0.847700000000     0.752500000000     0.032300000000     0.0355146  
H        H      0.974800000000     0.686500000000     0.261600000000     0.0355146  
H        H      0.748700000000     0.536100000000     0.175400000000     0.0355146  
H        H      0.652300000000     0.247500000000     0.532300000000     0.0355146  
H        H      0.525200000000     0.313500000000     0.761600000000     0.0355146  
H        H      0.751300000000     0.463900000000     0.675400000000     0.0355146  
H        H      0.152300000000     0.252500000000     0.467700000000     0.0355146  
H        H      0.025200000000     0.186500000000     0.238400000000     0.0355146  
H        H      0.251300000000     0.036100000000     0.324600000000     0.0355146  
H        H      0.347700000000     0.747500000000     0.967700000000     0.0355146  
H        H      0.474800000000     0.813500000000     0.738400000000     0.0355146  
H        H      0.248700000000     0.963900000000     0.824600000000     0.0355146  
C        C      0.788100000000     0.642600000000     0.092200000000     0.0997709  
C        C      0.851800000000     0.714600000000     0.083200000000     0.0997709  
C        C      0.922500000000     0.734500000000     0.145200000000     0.0997709  
C        C      0.926500000000     0.676500000000     0.218200000000     0.0997709  
C        C      0.860100000000     0.603600000000     0.228500000000     0.0997709  
C        C      0.792900000000     0.586200000000     0.167800000000     0.0997709  
C        C      0.712900000000     0.618700000000     0.021800000000     0.0997709  
C        C      0.987500000000     0.811800000000     0.133000000000     0.0997709  
C        C      0.866200000000     0.544000000000     0.309700000000     0.0997709  
C        C      0.711900000000     0.357400000000     0.592200000000     0.0997709  
C        C      0.648200000000     0.285400000000     0.583200000000     0.0997709  
C        C      0.577500000000     0.265500000000     0.645200000000     0.0997709  
C        C      0.573500000000     0.323500000000     0.718200000000     0.0997709  
C        C      0.639900000000     0.396400000000     0.728500000000     0.0997709  
C        C      0.707100000000     0.413800000000     0.667800000000     0.0997709  
C        C      0.787100000000     0.381300000000     0.521800000000     0.0997709  
C        C      0.512500000000     0.188200000000     0.633000000000     0.0997709  
C        C      0.633800000000     0.456000000000     0.809700000000     0.0997709  
C        C      0.211900000000     0.142600000000     0.407800000000     0.0997709  
C        C      0.148200000000     0.214600000000     0.416800000000     0.0997709  
C        C      0.077500000000     0.234500000000     0.354800000000     0.0997709  
C        C      0.073500000000     0.176500000000     0.281800000000     0.0997709  
C        C      0.139900000000     0.103600000000     0.271500000000     0.0997709  
C        C      0.207100000000     0.086200000000     0.332200000000     0.0997709  
C        C      0.287100000000     0.118700000000     0.478200000000     0.0997709  
C        C      0.012500000000     0.311800000000     0.367000000000     0.0997709  
C        C      0.133800000000     0.044000000000     0.190300000000     0.0997709  
C        C      0.288100000000     0.857400000000     0.907800000000     0.0997709  
C        C      0.351800000000     0.785400000000     0.916800000000     0.0997709  
C        C      0.422500000000     0.765500000000     0.854800000000     0.0997709  
C        C      0.426500000000     0.823500000000     0.781800000000     0.0997709  
C        C      0.360100000000     0.896400000000     0.771500000000     0.0997709  
C        C      0.292900000000     0.913800000000     0.832200000000     0.0997709  
C        C      0.212900000000     0.881300000000     0.978200000000     0.0997709  
C        C      0.487500000000     0.688200000000     0.867000000000     0.0997709  
C        C      0.366200000000     0.956000000000     0.690300000000     0.0997709  
O        O      0.652500000000     0.554200000000     0.036200000000    -0.307127   
O        O      0.715000000000     0.669700000000     0.957000000000    -0.307127   
O        O      0.975400000000     0.865700000000     0.067800000000    -0.307127   
O        O      0.056700000000     0.821900000000     0.186100000000    -0.307127   
O        O      0.939700000000     0.555900000000     0.360900000000    -0.307127   
O        O      0.803100000000     0.486900000000     0.322700000000    -0.307127   
O        O      0.847500000000     0.445800000000     0.536200000000    -0.307127   
O        O      0.785000000000     0.330300000000     0.457000000000    -0.307127   
O        O      0.524600000000     0.134300000000     0.567800000000    -0.307127   
O        O      0.443300000000     0.178100000000     0.686100000000    -0.307127   
O        O      0.560300000000     0.444100000000     0.860900000000    -0.307127   
O        O      0.696900000000     0.513100000000     0.822700000000    -0.307127   
O        O      0.347500000000     0.054200000000     0.463800000000    -0.307127   
O        O      0.285000000000     0.169700000000     0.543000000000    -0.307127   
O        O      0.024600000000     0.365700000000     0.432200000000    -0.307127   
O        O      0.943300000000     0.321900000000     0.313900000000    -0.307127   
O        O      0.060300000000     0.055900000000     0.139100000000    -0.307127   
O        O      0.196900000000     0.986900000000     0.177300000000    -0.307127   
O        O      0.152500000000     0.945800000000     0.963800000000    -0.307127   
O        O      0.215000000000     0.830300000000     0.043000000000    -0.307127   
O        O      0.475400000000     0.634300000000     0.932200000000    -0.307127   
O        O      0.556700000000     0.678100000000     0.813900000000    -0.307127   
O        O      0.439700000000     0.944100000000     0.639100000000    -0.307127   
O        O      0.303100000000     0.013100000000     0.677300000000    -0.307127   


