data_SENWIT_original

_audit_creation_method RASPA-1.0
_audit_creation_date 2022-1-29
_audit_author_name 'Felipe Lopes de Oliveira <felipe.lopes.oliveira@ibm.com>'

_cell_length_a    12.662
_cell_length_b    14.662
_cell_length_c    15.434
_cell_angle_alpha 90
_cell_angle_beta  90
_cell_angle_gamma 90
_cell_volume      2865.33

_symmetry_cell_setting          triclinic
_symmetry_space_group_name_Hall 'P 1'
_symmetry_space_group_name_H-M  'P 1'
_symmetry_Int_Tables_number     1

_symmetry_equiv_pos_as_xyz 'x,y,z'

loop_
_atom_site_label
_atom_site_type_symbol
_atom_site_fract_x
_atom_site_fract_y
_atom_site_fract_z
_atom_site_charge
Zn       Zn     0.488630000000     0.975890000000     0.047080000000     0.407629   
Zn       Zn     0.298260000000     0.831000000000     0.159830000000     0.407629   
Zn       Zn     0.011370000000     0.024110000000     0.547080000000     0.407629   
Zn       Zn     0.201740000000     0.169000000000     0.659830000000     0.407629   
Zn       Zn     0.511370000000     0.475890000000     0.452920000000     0.407629   
Zn       Zn     0.701740000000     0.331000000000     0.340170000000     0.407629   
Zn       Zn     0.988630000000     0.524110000000     0.952920000000     0.407629   
Zn       Zn     0.798260000000     0.669000000000     0.840170000000     0.407629   
H        H      0.540300000000     0.688600000000     0.262900000000     0.0415115  
H        H      0.770100000000     0.519100000000     0.176400000000     0.0415115  
H        H      0.692800000000     0.745800000000     0.038200000000     0.0415115  
H        H      0.959700000000     0.311400000000     0.762900000000     0.0415115  
H        H      0.729900000000     0.480900000000     0.676400000000     0.0415115  
H        H      0.807200000000     0.254200000000     0.538200000000     0.0415115  
H        H      0.459700000000     0.188600000000     0.237100000000     0.0415115  
H        H      0.229900000000     0.019100000000     0.323600000000     0.0415115  
H        H      0.307200000000     0.245800000000     0.461800000000     0.0415115  
H        H      0.040300000000     0.811400000000     0.737100000000     0.0415115  
H        H      0.270100000000     0.980900000000     0.823600000000     0.0415115  
H        H      0.192800000000     0.754200000000     0.961800000000     0.0415115  
C        C      0.606900000000     0.729700000000     0.149600000000     0.0938253  
C        C      0.592100000000     0.673300000000     0.220800000000     0.0938253  
C        C      0.651900000000     0.594800000000     0.231500000000     0.0938253  
C        C      0.728200000000     0.572400000000     0.169300000000     0.0938253  
C        C      0.743000000000     0.628000000000     0.096900000000     0.0938253  
C        C      0.682500000000     0.707400000000     0.087000000000     0.0938253  
C        C      0.540300000000     0.813600000000     0.139100000000     0.0938253  
C        C      0.635100000000     0.532500000000     0.307200000000     0.0938253  
C        C      0.823900000000     0.604800000000     0.030700000000     0.0938253  
C        C      0.893100000000     0.270300000000     0.649600000000     0.0938253  
C        C      0.907900000000     0.326700000000     0.720800000000     0.0938253  
C        C      0.848100000000     0.405200000000     0.731500000000     0.0938253  
C        C      0.771800000000     0.427600000000     0.669300000000     0.0938253  
C        C      0.757000000000     0.372000000000     0.596900000000     0.0938253  
C        C      0.817500000000     0.292600000000     0.587000000000     0.0938253  
C        C      0.959700000000     0.186400000000     0.639100000000     0.0938253  
C        C      0.864900000000     0.467500000000     0.807200000000     0.0938253  
C        C      0.676100000000     0.395200000000     0.530700000000     0.0938253  
C        C      0.393100000000     0.229700000000     0.350400000000     0.0938253  
C        C      0.407900000000     0.173300000000     0.279200000000     0.0938253  
C        C      0.348100000000     0.094800000000     0.268500000000     0.0938253  
C        C      0.271800000000     0.072400000000     0.330700000000     0.0938253  
C        C      0.257000000000     0.128000000000     0.403100000000     0.0938253  
C        C      0.317500000000     0.207400000000     0.413000000000     0.0938253  
C        C      0.459700000000     0.313600000000     0.360900000000     0.0938253  
C        C      0.364900000000     0.032500000000     0.192800000000     0.0938253  
C        C      0.176100000000     0.104800000000     0.469300000000     0.0938253  
C        C      0.106900000000     0.770300000000     0.850400000000     0.0938253  
C        C      0.092100000000     0.826700000000     0.779200000000     0.0938253  
C        C      0.151900000000     0.905200000000     0.768500000000     0.0938253  
C        C      0.228200000000     0.927600000000     0.830700000000     0.0938253  
C        C      0.243000000000     0.872000000000     0.903100000000     0.0938253  
C        C      0.182500000000     0.792600000000     0.913000000000     0.0938253  
C        C      0.040300000000     0.686400000000     0.860900000000     0.0938253  
C        C      0.135100000000     0.967500000000     0.692800000000     0.0938253  
C        C      0.323900000000     0.895200000000     0.969300000000     0.0938253  
O        O      0.570840000000     0.870300000000     0.082110000000    -0.29737    
O        O      0.461360000000     0.822920000000     0.187110000000    -0.29737    
O        O      0.554470000000     0.550020000000     0.353700000000    -0.29737    
O        O      0.699420000000     0.470750000000     0.319930000000    -0.29737    
O        O      0.875210000000     0.530900000000     0.040040000000    -0.29737    
O        O      0.840810000000     0.660270000000     0.970450000000    -0.29737    
O        O      0.929160000000     0.129700000000     0.582110000000    -0.29737    
O        O      0.038640000000     0.177080000000     0.687110000000    -0.29737    
O        O      0.945530000000     0.449980000000     0.853700000000    -0.29737    
O        O      0.800580000000     0.529250000000     0.819930000000    -0.29737    
O        O      0.624790000000     0.469100000000     0.540040000000    -0.29737    
O        O      0.659190000000     0.339730000000     0.470450000000    -0.29737    
O        O      0.429160000000     0.370300000000     0.417890000000    -0.29737    
O        O      0.538640000000     0.322920000000     0.312890000000    -0.29737    
O        O      0.445530000000     0.050020000000     0.146300000000    -0.29737    
O        O      0.300580000000     0.970750000000     0.180070000000    -0.29737    
O        O      0.124790000000     0.030900000000     0.459960000000    -0.29737    
O        O      0.159190000000     0.160270000000     0.529550000000    -0.29737    
O        O      0.070840000000     0.629700000000     0.917890000000    -0.29737    
O        O      0.961360000000     0.677080000000     0.812890000000    -0.29737    
O        O      0.054470000000     0.949980000000     0.646300000000    -0.29737    
O        O      0.199420000000     0.029250000000     0.680070000000    -0.29737    
O        O      0.375210000000     0.969100000000     0.959960000000    -0.29737    
O        O      0.340810000000     0.839730000000     0.029550000000    -0.29737    


