data_SENWAL_original

_audit_creation_method RASPA-1.0
_audit_creation_date 2022-1-29
_audit_author_name 'Felipe Lopes de Oliveira <felipe.lopes.oliveira@ibm.com>'

_cell_length_a    13.385
_cell_length_b    14.712
_cell_length_c    15.573
_cell_angle_alpha 90
_cell_angle_beta  90
_cell_angle_gamma 90
_cell_volume      3066.64

_symmetry_cell_setting          triclinic
_symmetry_space_group_name_Hall 'P 1'
_symmetry_space_group_name_H-M  'P 1'
_symmetry_Int_Tables_number     1

_symmetry_equiv_pos_as_xyz 'x,y,z'

loop_
_atom_site_label
_atom_site_type_symbol
_atom_site_fract_x
_atom_site_fract_y
_atom_site_fract_z
_atom_site_charge
Zn       Zn     0.212480000000     0.702700000000     0.790770000000     0.411929   
Zn       Zn     0.049960000000     0.551940000000     0.906720000000     0.411929   
Zn       Zn     0.287520000000     0.297300000000     0.290770000000     0.411929   
Zn       Zn     0.450040000000     0.448060000000     0.406720000000     0.411929   
Zn       Zn     0.787520000000     0.202700000000     0.709230000000     0.411929   
Zn       Zn     0.950040000000     0.051940000000     0.593280000000     0.411929   
Zn       Zn     0.712480000000     0.797300000000     0.209230000000     0.411929   
Zn       Zn     0.549960000000     0.948060000000     0.093280000000     0.411929   
H        H      0.903400000000     0.776000000000     0.991800000000     0.0403757  
H        H      0.756700000000     0.004300000000     0.923400000000     0.0403757  
H        H      0.981800000000     0.908900000000     0.774500000000     0.0403757  
H        H      0.596600000000     0.224000000000     0.491800000000     0.0403757  
H        H      0.743300000000     0.995700000000     0.423400000000     0.0403757  
H        H      0.518200000000     0.091100000000     0.274500000000     0.0403757  
H        H      0.096600000000     0.276000000000     0.508200000000     0.0403757  
H        H      0.243300000000     0.504300000000     0.576600000000     0.0403757  
H        H      0.018200000000     0.408900000000     0.725500000000     0.0403757  
H        H      0.403400000000     0.724000000000     0.008200000000     0.0403757  
H        H      0.256700000000     0.495700000000     0.076600000000     0.0403757  
H        H      0.481800000000     0.591100000000     0.225500000000     0.0403757  
C        C      0.956100000000     0.831200000000     0.880100000000     0.093737   
C        C      0.895200000000     0.825600000000     0.953400000000     0.093737   
C        C      0.824500000000     0.889900000000     0.970600000000     0.093737   
C        C      0.808300000000     0.961300000000     0.913000000000     0.093737   
C        C      0.868500000000     0.969100000000     0.839900000000     0.093737   
C        C      0.941300000000     0.903800000000     0.824400000000     0.093737   
C        C      0.033100000000     0.760800000000     0.863200000000     0.093737   
C        C      0.761200000000     0.885700000000     0.049500000000     0.093737   
C        C      0.856300000000     0.046600000000     0.779200000000     0.093737   
C        C      0.543900000000     0.168800000000     0.380100000000     0.093737   
C        C      0.604800000000     0.174400000000     0.453400000000     0.093737   
C        C      0.675500000000     0.110100000000     0.470600000000     0.093737   
C        C      0.691700000000     0.038700000000     0.413000000000     0.093737   
C        C      0.631500000000     0.030900000000     0.339900000000     0.093737   
C        C      0.558700000000     0.096200000000     0.324400000000     0.093737   
C        C      0.466900000000     0.239200000000     0.363200000000     0.093737   
C        C      0.738800000000     0.114300000000     0.549500000000     0.093737   
C        C      0.643700000000     0.953400000000     0.279200000000     0.093737   
C        C      0.043900000000     0.331200000000     0.619900000000     0.093737   
C        C      0.104800000000     0.325600000000     0.546600000000     0.093737   
C        C      0.175500000000     0.389900000000     0.529400000000     0.093737   
C        C      0.191700000000     0.461300000000     0.587000000000     0.093737   
C        C      0.131500000000     0.469100000000     0.660100000000     0.093737   
C        C      0.058700000000     0.403800000000     0.675600000000     0.093737   
C        C      0.966900000000     0.260800000000     0.636800000000     0.093737   
C        C      0.238800000000     0.385700000000     0.450500000000     0.093737   
C        C      0.143700000000     0.546600000000     0.720800000000     0.093737   
C        C      0.456100000000     0.668800000000     0.119900000000     0.093737   
C        C      0.395200000000     0.674400000000     0.046600000000     0.093737   
C        C      0.324500000000     0.610100000000     0.029400000000     0.093737   
C        C      0.308300000000     0.538700000000     0.087000000000     0.093737   
C        C      0.368500000000     0.530900000000     0.160100000000     0.093737   
C        C      0.441300000000     0.596200000000     0.175600000000     0.093737   
C        C      0.533100000000     0.739200000000     0.136800000000     0.093737   
C        C      0.261200000000     0.614300000000     0.950500000000     0.093737   
C        C      0.356300000000     0.453400000000     0.220800000000     0.093737   
O        O      0.093200000000     0.775900000000     0.802600000000    -0.298103   
O        O      0.034300000000     0.692700000000     0.912900000000    -0.298103   
O        O      0.776700000000     0.815800000000     0.097700000000    -0.298103   
O        O      0.699400000000     0.945800000000     0.064700000000    -0.298103   
O        O      0.780800000000     0.097600000000     0.784400000000    -0.298103   
O        O      0.926100000000     0.059300000000     0.725000000000    -0.298103   
O        O      0.406800000000     0.224100000000     0.302600000000    -0.298103   
O        O      0.465700000000     0.307300000000     0.412900000000    -0.298103   
O        O      0.723300000000     0.184200000000     0.597700000000    -0.298103   
O        O      0.800600000000     0.054200000000     0.564700000000    -0.298103   
O        O      0.719200000000     0.902400000000     0.284400000000    -0.298103   
O        O      0.573900000000     0.940700000000     0.225000000000    -0.298103   
O        O      0.906800000000     0.275900000000     0.697400000000    -0.298103   
O        O      0.965700000000     0.192700000000     0.587100000000    -0.298103   
O        O      0.223300000000     0.315800000000     0.402300000000    -0.298103   
O        O      0.300600000000     0.445800000000     0.435300000000    -0.298103   
O        O      0.219200000000     0.597600000000     0.715600000000    -0.298103   
O        O      0.073900000000     0.559300000000     0.775000000000    -0.298103   
O        O      0.593200000000     0.724100000000     0.197400000000    -0.298103   
O        O      0.534300000000     0.807300000000     0.087100000000    -0.298103   
O        O      0.276700000000     0.684200000000     0.902300000000    -0.298103   
O        O      0.199400000000     0.554200000000     0.935300000000    -0.298103   
O        O      0.280800000000     0.402400000000     0.215600000000    -0.298103   
O        O      0.426100000000     0.440700000000     0.275000000000    -0.298103   


