data_SETQUF_original

_audit_creation_method RASPA-1.0
_audit_creation_date 2022-1-30
_audit_author_name 'Felipe Lopes de Oliveira <felipe.lopes.oliveira@ibm.com>'

_cell_length_a    11.2577
_cell_length_b    11.2577
_cell_length_c    13.797
_cell_angle_alpha 107.52
_cell_angle_beta  107.52
_cell_angle_gamma 90.8657
_cell_volume      1579.33

_symmetry_cell_setting          triclinic
_symmetry_space_group_name_Hall 'P 1'
_symmetry_space_group_name_H-M  'P 1'
_symmetry_Int_Tables_number     1

_symmetry_equiv_pos_as_xyz 'x,y,z'

loop_
_atom_site_label
_atom_site_type_symbol
_atom_site_fract_x
_atom_site_fract_y
_atom_site_fract_z
_atom_site_charge
Fe       Fe     0.998230000000     0.001770000000     0.250000000000     1.07642    
Fe       Fe     0.001770000000     0.998230000000     0.750000000000     1.07642    
Fe       Fe     0.000000000000     0.000000000000     0.000000000000     1.07642    
Fe       Fe     0.000000000000     0.000000000000     0.500000000000     1.07642    
H        H      0.006010000000     0.610150000000     0.426450000000     0.05306    
H        H      0.004770000000     0.391110000000     0.372530000000     0.05306    
H        H      0.004960000000     0.390720000000     0.077470000000     0.05306    
H        H      0.006200000000     0.609760000000     0.131390000000     0.05306    
H        H      0.389850000000     0.993990000000     0.073550000000     0.05306    
H        H      0.608890000000     0.995230000000     0.127470000000     0.05306    
H        H      0.609280000000     0.995040000000     0.422530000000     0.05306    
H        H      0.390240000000     0.993800000000     0.368610000000     0.05306    
H        H      0.993990000000     0.389850000000     0.573550000000     0.05306    
H        H      0.995230000000     0.608890000000     0.627470000000     0.05306    
H        H      0.995040000000     0.609280000000     0.922530000000     0.05306    
H        H      0.993800000000     0.390240000000     0.868610000000     0.05306    
H        H      0.610150000000     0.006010000000     0.926450000000     0.05306    
H        H      0.391110000000     0.004770000000     0.872530000000     0.05306    
H        H      0.390720000000     0.004960000000     0.577470000000     0.05306    
H        H      0.609760000000     0.006200000000     0.631390000000     0.05306    
C        C      0.006210000000     0.628130000000     0.283390000000     0.0734175  
C        C      0.005790000000     0.564390000000     0.353690000000     0.0734175  
C        C      0.005070000000     0.436710000000     0.322250000000     0.0734175  
C        C      0.004760000000     0.372740000000     0.220530000000     0.0734175  
C        C      0.005180000000     0.436480000000     0.150240000000     0.0734175  
C        C      0.005900000000     0.564160000000     0.181670000000     0.0734175  
C        C      0.006970000000     0.765150000000     0.317120000000     0.0734175  
C        C      0.004000000000     0.235720000000     0.186800000000     0.0734175  
C        C      0.371870000000     0.993790000000     0.216610000000     0.0734175  
C        C      0.435610000000     0.994210000000     0.146310000000     0.0734175  
C        C      0.563290000000     0.994930000000     0.177750000000     0.0734175  
C        C      0.627260000000     0.995240000000     0.279470000000     0.0734175  
C        C      0.563520000000     0.994820000000     0.349760000000     0.0734175  
C        C      0.435840000000     0.994100000000     0.318330000000     0.0734175  
C        C      0.234850000000     0.993030000000     0.182880000000     0.0734175  
C        C      0.764280000000     0.996000000000     0.313200000000     0.0734175  
C        C      0.993790000000     0.371870000000     0.716610000000     0.0734175  
C        C      0.994210000000     0.435610000000     0.646310000000     0.0734175  
C        C      0.994930000000     0.563290000000     0.677750000000     0.0734175  
C        C      0.995240000000     0.627260000000     0.779470000000     0.0734175  
C        C      0.994820000000     0.563520000000     0.849760000000     0.0734175  
C        C      0.994100000000     0.435840000000     0.818330000000     0.0734175  
C        C      0.993030000000     0.234850000000     0.682880000000     0.0734175  
C        C      0.996000000000     0.764280000000     0.813200000000     0.0734175  
C        C      0.628130000000     0.006210000000     0.783390000000     0.0734175  
C        C      0.564390000000     0.005790000000     0.853690000000     0.0734175  
C        C      0.436710000000     0.005070000000     0.822250000000     0.0734175  
C        C      0.372740000000     0.004760000000     0.720530000000     0.0734175  
C        C      0.436480000000     0.005180000000     0.650240000000     0.0734175  
C        C      0.564160000000     0.005900000000     0.681670000000     0.0734175  
C        C      0.765150000000     0.006970000000     0.817120000000     0.0734175  
C        C      0.235720000000     0.004000000000     0.686800000000     0.0734175  
O        O      0.004720000000     0.823940000000     0.251270000000    -0.3752     
O        O      0.009890000000     0.824730000000     0.412120000000    -0.3752     
O        O      0.011020000000     0.177240000000     0.094690000000    -0.3752     
O        O      0.996310000000     0.175830000000     0.249770000000    -0.3752     
O        O      0.931520000000     0.945400000000     0.093350000000    -0.3752     
O        O      0.176060000000     0.995280000000     0.248730000000    -0.3752     
O        O      0.175270000000     0.990110000000     0.087880000000    -0.3752     
O        O      0.822760000000     0.988980000000     0.405310000000    -0.3752     
O        O      0.824170000000     0.003690000000     0.250230000000    -0.3752     
O        O      0.054600000000     0.068480000000     0.406650000000    -0.3752     
O        O      0.995280000000     0.176060000000     0.748730000000    -0.3752     
O        O      0.990110000000     0.175270000000     0.587880000000    -0.3752     
O        O      0.988980000000     0.822760000000     0.905310000000    -0.3752     
O        O      0.003690000000     0.824170000000     0.750230000000    -0.3752     
O        O      0.068480000000     0.054600000000     0.906650000000    -0.3752     
O        O      0.823940000000     0.004720000000     0.751270000000    -0.3752     
O        O      0.824730000000     0.009890000000     0.912120000000    -0.3752     
O        O      0.177240000000     0.011020000000     0.594690000000    -0.3752     
O        O      0.175830000000     0.996310000000     0.749770000000    -0.3752     
O        O      0.945400000000     0.931520000000     0.593350000000    -0.3752     


