data_TACPAP_original

_audit_creation_method RASPA-1.0
_audit_creation_date 2022-1-29
_audit_author_name 'Felipe Lopes de Oliveira <felipe.lopes.oliveira@ibm.com>'

_cell_length_a    5.8265
_cell_length_b    19.0513
_cell_length_c    19.0513
_cell_angle_alpha 90
_cell_angle_beta  90
_cell_angle_gamma 90
_cell_volume      2114.74

_symmetry_cell_setting          triclinic
_symmetry_space_group_name_Hall 'P 1'
_symmetry_space_group_name_H-M  'P 1'
_symmetry_Int_Tables_number     1

_symmetry_equiv_pos_as_xyz 'x,y,z'

loop_
_atom_site_label
_atom_site_type_symbol
_atom_site_fract_x
_atom_site_fract_y
_atom_site_fract_z
_atom_site_charge
Zn       Zn     0.250000000000     0.727610000000     0.272390000000     0.527812   
Zn       Zn     0.750000000000     0.272390000000     0.727610000000     0.527812   
Zn       Zn     0.000000000000     0.227610000000     0.227610000000     0.527812   
Zn       Zn     0.500000000000     0.772390000000     0.772390000000     0.527812   
Zn       Zn     0.750000000000     0.775650000000     0.224350000000     0.527812   
Zn       Zn     0.250000000000     0.224350000000     0.775650000000     0.527812   
Zn       Zn     0.500000000000     0.275650000000     0.275650000000     0.527812   
Zn       Zn     0.000000000000     0.724350000000     0.724350000000     0.527812   
H        H      0.406000000000     0.624000000000     0.239000000000     0.149795   
H        H      0.978000000000     0.493000000000     0.303500000000     0.149795   
H        H      0.405200000000     0.460000000000     0.216400000000     0.149795   
H        H      0.686000000000     0.390000000000     0.250000000000     0.149795   
H        H      0.174200000000     0.549600000000     0.206900000000     0.149795   
H        H      0.454200000000     0.503300000000     0.329400000000     0.149795   
H        H      0.906000000000     0.376000000000     0.761000000000     0.149795   
H        H      0.478000000000     0.507000000000     0.696500000000     0.149795   
H        H      0.905200000000     0.540000000000     0.783600000000     0.149795   
H        H      0.186000000000     0.610000000000     0.750000000000     0.149795   
H        H      0.674200000000     0.450400000000     0.793100000000     0.149795   
H        H      0.954200000000     0.496700000000     0.670600000000     0.149795   
H        H      0.156000000000     0.261000000000     0.124000000000     0.149795   
H        H      0.728000000000     0.196500000000     0.993000000000     0.149795   
H        H      0.155200000000     0.283600000000     0.960000000000     0.149795   
H        H      0.436000000000     0.250000000000     0.890000000000     0.149795   
H        H      0.924200000000     0.293100000000     0.049600000000     0.149795   
H        H      0.204200000000     0.170600000000     0.003300000000     0.149795   
H        H      0.656000000000     0.739000000000     0.876000000000     0.149795   
H        H      0.228000000000     0.803500000000     0.007000000000     0.149795   
H        H      0.655200000000     0.716400000000     0.040000000000     0.149795   
H        H      0.936000000000     0.750000000000     0.110000000000     0.149795   
H        H      0.424200000000     0.706900000000     0.950400000000     0.149795   
H        H      0.704200000000     0.829400000000     0.996700000000     0.149795   
H        H      0.344000000000     0.876000000000     0.739000000000     0.149795   
H        H      0.772000000000     0.007000000000     0.803500000000     0.149795   
H        H      0.344800000000     0.040000000000     0.716400000000     0.149795   
H        H      0.064000000000     0.110000000000     0.750000000000     0.149795   
H        H      0.575800000000     0.950400000000     0.706900000000     0.149795   
H        H      0.295800000000     0.996700000000     0.829400000000     0.149795   
H        H      0.844000000000     0.124000000000     0.261000000000     0.149795   
H        H      0.272000000000     0.993000000000     0.196500000000     0.149795   
H        H      0.844800000000     0.960000000000     0.283600000000     0.149795   
H        H      0.564000000000     0.890000000000     0.250000000000     0.149795   
H        H      0.075800000000     0.049600000000     0.293100000000     0.149795   
H        H      0.795800000000     0.003300000000     0.170600000000     0.149795   
H        H      0.594000000000     0.239000000000     0.624000000000     0.149795   
H        H      0.022000000000     0.303500000000     0.493000000000     0.149795   
H        H      0.594800000000     0.216400000000     0.460000000000     0.149795   
H        H      0.314000000000     0.250000000000     0.390000000000     0.149795   
H        H      0.825800000000     0.206900000000     0.549600000000     0.149795   
H        H      0.545800000000     0.329400000000     0.503300000000     0.149795   
H        H      0.094000000000     0.761000000000     0.376000000000     0.149795   
H        H      0.522000000000     0.696500000000     0.507000000000     0.149795   
H        H      0.094800000000     0.783600000000     0.540000000000     0.149795   
H        H      0.814000000000     0.750000000000     0.610000000000     0.149795   
H        H      0.325800000000     0.793100000000     0.450400000000     0.149795   
H        H      0.045800000000     0.670600000000     0.496700000000     0.149795   
C        C      0.918500000000     0.617500000000     0.241900000000     0.128013   
C        C      0.113600000000     0.522100000000     0.312500000000     0.128013   
C        C      0.369700000000     0.429400000000     0.256300000000     0.128013   
C        C      0.169200000000     0.382500000000     0.237600000000     0.128013   
C        C      0.140200000000     0.575000000000     0.250400000000     0.128013   
C        C      0.319200000000     0.474000000000     0.320200000000     0.128013   
C        C      0.418500000000     0.382500000000     0.758100000000     0.128013   
C        C      0.613600000000     0.477900000000     0.687500000000     0.128013   
C        C      0.869700000000     0.570600000000     0.743700000000     0.128013   
C        C      0.669200000000     0.617500000000     0.762400000000     0.128013   
C        C      0.640200000000     0.425000000000     0.749600000000     0.128013   
C        C      0.819200000000     0.526000000000     0.679800000000     0.128013   
C        C      0.668500000000     0.258100000000     0.117500000000     0.128013   
C        C      0.863600000000     0.187500000000     0.022100000000     0.128013   
C        C      0.119700000000     0.243700000000     0.929400000000     0.128013   
C        C      0.919200000000     0.262400000000     0.882500000000     0.128013   
C        C      0.890200000000     0.249600000000     0.075000000000     0.128013   
C        C      0.069200000000     0.179800000000     0.974000000000     0.128013   
C        C      0.168500000000     0.741900000000     0.882500000000     0.128013   
C        C      0.363600000000     0.812500000000     0.977900000000     0.128013   
C        C      0.619700000000     0.756300000000     0.070600000000     0.128013   
C        C      0.419200000000     0.737600000000     0.117500000000     0.128013   
C        C      0.390200000000     0.750400000000     0.925000000000     0.128013   
C        C      0.569200000000     0.820200000000     0.026000000000     0.128013   
C        C      0.831500000000     0.882500000000     0.741900000000     0.128013   
C        C      0.636400000000     0.977900000000     0.812500000000     0.128013   
C        C      0.380300000000     0.070600000000     0.756300000000     0.128013   
C        C      0.580800000000     0.117500000000     0.737600000000     0.128013   
C        C      0.609800000000     0.925000000000     0.750400000000     0.128013   
C        C      0.430800000000     0.026000000000     0.820200000000     0.128013   
C        C      0.331500000000     0.117500000000     0.258100000000     0.128013   
C        C      0.136400000000     0.022100000000     0.187500000000     0.128013   
C        C      0.880300000000     0.929400000000     0.243700000000     0.128013   
C        C      0.080800000000     0.882500000000     0.262400000000     0.128013   
C        C      0.109800000000     0.075000000000     0.249600000000     0.128013   
C        C      0.930800000000     0.974000000000     0.179800000000     0.128013   
C        C      0.081500000000     0.241900000000     0.617500000000     0.128013   
C        C      0.886400000000     0.312500000000     0.522100000000     0.128013   
C        C      0.630300000000     0.256300000000     0.429400000000     0.128013   
C        C      0.830800000000     0.237600000000     0.382500000000     0.128013   
C        C      0.859800000000     0.250400000000     0.575000000000     0.128013   
C        C      0.680800000000     0.320200000000     0.474000000000     0.128013   
C        C      0.581500000000     0.758100000000     0.382500000000     0.128013   
C        C      0.386400000000     0.687500000000     0.477900000000     0.128013   
C        C      0.130300000000     0.743700000000     0.570600000000     0.128013   
C        C      0.330800000000     0.762400000000     0.617500000000     0.128013   
C        C      0.359800000000     0.749600000000     0.425000000000     0.128013   
C        C      0.180800000000     0.679800000000     0.526000000000     0.128013   
O        O      0.939300000000     0.683800000000     0.243000000000    -0.274333   
O        O      0.738600000000     0.584600000000     0.231800000000    -0.274333   
O        O      0.324400000000     0.622100000000     0.266800000000    -0.274333   
O        O      0.075400000000     0.560100000000     0.374600000000    -0.274333   
O        O      0.287700000000     0.429200000000     0.379100000000    -0.274333   
O        O      0.566800000000     0.385200000000     0.271500000000    -0.274333   
O        O      0.194200000000     0.315800000000     0.246900000000    -0.274333   
O        O      0.991100000000     0.408600000000     0.213600000000    -0.274333   
O        O      0.439300000000     0.316200000000     0.757000000000    -0.274333   
O        O      0.238600000000     0.415400000000     0.768200000000    -0.274333   
O        O      0.824400000000     0.377900000000     0.733200000000    -0.274333   
O        O      0.575400000000     0.439900000000     0.625400000000    -0.274333   
O        O      0.787700000000     0.570800000000     0.620900000000    -0.274333   
O        O      0.066800000000     0.614800000000     0.728500000000    -0.274333   
O        O      0.694200000000     0.684200000000     0.753100000000    -0.274333   
O        O      0.491100000000     0.591400000000     0.786400000000    -0.274333   
O        O      0.689300000000     0.257000000000     0.183800000000    -0.274333   
O        O      0.488600000000     0.268200000000     0.084600000000    -0.274333   
O        O      0.074400000000     0.233200000000     0.122100000000    -0.274333   
O        O      0.825400000000     0.125400000000     0.060100000000    -0.274333   
O        O      0.037700000000     0.120900000000     0.929200000000    -0.274333   
O        O      0.316800000000     0.228500000000     0.885200000000    -0.274333   
O        O      0.944200000000     0.253100000000     0.815800000000    -0.274333   
O        O      0.741100000000     0.286400000000     0.908600000000    -0.274333   
O        O      0.189300000000     0.743000000000     0.816200000000    -0.274333   
O        O      0.988600000000     0.731800000000     0.915400000000    -0.274333   
O        O      0.574400000000     0.766800000000     0.877900000000    -0.274333   
O        O      0.325400000000     0.874600000000     0.939900000000    -0.274333   
O        O      0.537700000000     0.879100000000     0.070800000000    -0.274333   
O        O      0.816800000000     0.771500000000     0.114800000000    -0.274333   
O        O      0.444200000000     0.746900000000     0.184200000000    -0.274333   
O        O      0.241100000000     0.713600000000     0.091400000000    -0.274333   
O        O      0.810700000000     0.816200000000     0.743000000000    -0.274333   
O        O      0.011400000000     0.915400000000     0.731800000000    -0.274333   
O        O      0.425600000000     0.877900000000     0.766800000000    -0.274333   
O        O      0.674600000000     0.939900000000     0.874600000000    -0.274333   
O        O      0.462300000000     0.070800000000     0.879100000000    -0.274333   
O        O      0.183200000000     0.114800000000     0.771500000000    -0.274333   
O        O      0.555800000000     0.184200000000     0.746900000000    -0.274333   
O        O      0.758900000000     0.091400000000     0.713600000000    -0.274333   
O        O      0.310700000000     0.183800000000     0.257000000000    -0.274333   
O        O      0.511400000000     0.084600000000     0.268200000000    -0.274333   
O        O      0.925600000000     0.122100000000     0.233200000000    -0.274333   
O        O      0.174600000000     0.060100000000     0.125400000000    -0.274333   
O        O      0.962300000000     0.929200000000     0.120900000000    -0.274333   
O        O      0.683200000000     0.885200000000     0.228500000000    -0.274333   
O        O      0.055800000000     0.815800000000     0.253100000000    -0.274333   
O        O      0.258900000000     0.908600000000     0.286400000000    -0.274333   
O        O      0.060700000000     0.243000000000     0.683800000000    -0.274333   
O        O      0.261400000000     0.231800000000     0.584600000000    -0.274333   
O        O      0.675600000000     0.266800000000     0.622100000000    -0.274333   
O        O      0.924600000000     0.374600000000     0.560100000000    -0.274333   
O        O      0.712300000000     0.379100000000     0.429200000000    -0.274333   
O        O      0.433200000000     0.271500000000     0.385200000000    -0.274333   
O        O      0.805800000000     0.246900000000     0.315800000000    -0.274333   
O        O      0.008900000000     0.213600000000     0.408600000000    -0.274333   
O        O      0.560700000000     0.757000000000     0.316200000000    -0.274333   
O        O      0.761400000000     0.768200000000     0.415400000000    -0.274333   
O        O      0.175600000000     0.733200000000     0.377900000000    -0.274333   
O        O      0.424600000000     0.625400000000     0.439900000000    -0.274333   
O        O      0.212300000000     0.620900000000     0.570800000000    -0.274333   
O        O      0.933200000000     0.728500000000     0.614800000000    -0.274333   
O        O      0.305800000000     0.753100000000     0.684200000000    -0.274333   
O        O      0.508900000000     0.786400000000     0.591400000000    -0.274333   


