data_TADCAE_original

_audit_creation_method RASPA-1.0
_audit_creation_date 2022-1-29
_audit_author_name 'Felipe Lopes de Oliveira <felipe.lopes.oliveira@ibm.com>'

_cell_length_a    14.4711
_cell_length_b    14.6161
_cell_length_c    17.8745
_cell_angle_alpha 90
_cell_angle_beta  90.238
_cell_angle_gamma 90
_cell_volume      3780.62

_symmetry_cell_setting          triclinic
_symmetry_space_group_name_Hall 'P 1'
_symmetry_space_group_name_H-M  'P 1'
_symmetry_Int_Tables_number     1

_symmetry_equiv_pos_as_xyz 'x,y,z'

loop_
_atom_site_label
_atom_site_type_symbol
_atom_site_fract_x
_atom_site_fract_y
_atom_site_fract_z
_atom_site_charge
Zn       Zn     0.157210000000     0.598570000000     0.968960000000     0.42914    
Zn       Zn     0.612880000000     0.845960000000     0.685310000000     0.42914    
Zn       Zn     0.648350000000     0.892770000000     0.968620000000     0.42914    
Zn       Zn     0.888430000000     0.365930000000     0.321890000000     0.42914    
Zn       Zn     0.842790000000     0.098570000000     0.531040000000     0.42914    
Zn       Zn     0.387120000000     0.345960000000     0.814690000000     0.42914    
Zn       Zn     0.351650000000     0.392770000000     0.531380000000     0.42914    
Zn       Zn     0.111570000000     0.865930000000     0.178110000000     0.42914    
Zn       Zn     0.842790000000     0.401430000000     0.031040000000     0.42914    
Zn       Zn     0.387120000000     0.154040000000     0.314690000000     0.42914    
Zn       Zn     0.351650000000     0.107230000000     0.031380000000     0.42914    
Zn       Zn     0.111570000000     0.634070000000     0.678110000000     0.42914    
Zn       Zn     0.157210000000     0.901430000000     0.468960000000     0.42914    
Zn       Zn     0.612880000000     0.654040000000     0.185310000000     0.42914    
Zn       Zn     0.648350000000     0.607230000000     0.468620000000     0.42914    
Zn       Zn     0.888430000000     0.134070000000     0.821890000000     0.42914    
H        H      0.074300000000     0.256900000000     0.104900000000     0.0598469  
H        H      0.375200000000     0.774500000000     0.870100000000     0.0598469  
H        H      0.718200000000     0.252900000000     0.851700000000     0.0598469  
H        H      0.656000000000     0.393200000000     0.827400000000     0.0598469  
H        H      0.878800000000     0.450000000000     0.706100000000     0.0598469  
H        H      0.931400000000     0.306600000000     0.730200000000     0.0598469  
H        H      0.579900000000     0.686000000000     0.801600000000     0.0598469  
H        H      0.632500000000     0.543600000000     0.829600000000     0.0598469  
H        H      0.795600000000     0.557100000000     0.653300000000     0.0598469  
H        H      0.736500000000     0.697900000000     0.629300000000     0.0598469  
H        H      0.925700000000     0.756900000000     0.395100000000     0.0598469  
H        H      0.624800000000     0.274500000000     0.629900000000     0.0598469  
H        H      0.281800000000     0.752900000000     0.648300000000     0.0598469  
H        H      0.344000000000     0.893200000000     0.672600000000     0.0598469  
H        H      0.121200000000     0.950000000000     0.793900000000     0.0598469  
H        H      0.068600000000     0.806600000000     0.769800000000     0.0598469  
H        H      0.420100000000     0.186000000000     0.698400000000     0.0598469  
H        H      0.367500000000     0.043600000000     0.670400000000     0.0598469  
H        H      0.204400000000     0.057100000000     0.846700000000     0.0598469  
H        H      0.263500000000     0.197900000000     0.870700000000     0.0598469  
H        H      0.925700000000     0.743100000000     0.895100000000     0.0598469  
H        H      0.624800000000     0.225500000000     0.129900000000     0.0598469  
H        H      0.281800000000     0.747100000000     0.148300000000     0.0598469  
H        H      0.344000000000     0.606800000000     0.172600000000     0.0598469  
H        H      0.121200000000     0.550000000000     0.293900000000     0.0598469  
H        H      0.068600000000     0.693400000000     0.269800000000     0.0598469  
H        H      0.420100000000     0.314000000000     0.198400000000     0.0598469  
H        H      0.367500000000     0.456400000000     0.170400000000     0.0598469  
H        H      0.204400000000     0.442900000000     0.346700000000     0.0598469  
H        H      0.263500000000     0.302100000000     0.370700000000     0.0598469  
H        H      0.074300000000     0.243100000000     0.604900000000     0.0598469  
H        H      0.375200000000     0.725500000000     0.370100000000     0.0598469  
H        H      0.718200000000     0.247100000000     0.351700000000     0.0598469  
H        H      0.656000000000     0.106800000000     0.327400000000     0.0598469  
H        H      0.878800000000     0.050000000000     0.206100000000     0.0598469  
H        H      0.931400000000     0.193400000000     0.230200000000     0.0598469  
H        H      0.579900000000     0.814000000000     0.301600000000     0.0598469  
H        H      0.632500000000     0.956400000000     0.329600000000     0.0598469  
H        H      0.795600000000     0.942900000000     0.153300000000     0.0598469  
H        H      0.736500000000     0.802100000000     0.129300000000     0.0598469  
C        C      0.031800000000     0.567730000000     0.093140000000     0.0853652  
C        C      0.071910000000     0.474040000000     0.074580000000     0.0853652  
C        C      0.046310000000     0.392140000000     0.108110000000     0.0853652  
C        C      0.968400000000     0.384500000000     0.162560000000     0.0853652  
C        C      0.089700000000     0.312720000000     0.083230000000     0.0853652  
C        C      0.154800000000     0.314830000000     0.027550000000     0.0853652  
C        C      0.200700000000     0.226110000000     0.005740000000     0.0853652  
C        C      0.176500000000     0.399480000000     0.995680000000     0.0853652  
C        C      0.245060000000     0.417530000000     0.933460000000     0.0853652  
C        C      0.480500000000     0.067180000000     0.910280000000     0.0853652  
C        C      0.425630000000     0.979940000000     0.923060000000     0.0853652  
C        C      0.436630000000     0.897980000000     0.884610000000     0.0853652  
C        C      0.519200000000     0.877980000000     0.835750000000     0.0853652  
C        C      0.372000000000     0.828630000000     0.897270000000     0.0853652  
C        C      0.302720000000     0.840140000000     0.950440000000     0.0853652  
C        C      0.227600000000     0.769140000000     0.958400000000     0.0853652  
C        C      0.302400000000     0.920570000000     0.991890000000     0.0853652  
C        C      0.243120000000     0.940070000000     0.059800000000     0.0853652  
C        C      0.751100000000     0.293100000000     0.821500000000     0.0853652  
C        C      0.713100000000     0.377800000000     0.807400000000     0.0853652  
C        C      0.760600000000     0.440200000000     0.763200000000     0.0853652  
C        C      0.843700000000     0.411000000000     0.735600000000     0.0853652  
C        C      0.875600000000     0.324600000000     0.751300000000     0.0853652  
C        C      0.625100000000     0.660500000000     0.771300000000     0.0853652  
C        C      0.656900000000     0.574200000000     0.788600000000     0.0853652  
C        C      0.723600000000     0.532800000000     0.746750000000     0.0853652  
C        C      0.752000000000     0.581800000000     0.685600000000     0.0853652  
C        C      0.716100000000     0.667300000000     0.671700000000     0.0853652  
C        C      0.968200000000     0.067730000000     0.406860000000     0.0853652  
C        C      0.928090000000     0.974040000000     0.425420000000     0.0853652  
C        C      0.953690000000     0.892140000000     0.391890000000     0.0853652  
C        C      0.031600000000     0.884500000000     0.337440000000     0.0853652  
C        C      0.910300000000     0.812720000000     0.416770000000     0.0853652  
C        C      0.845200000000     0.814830000000     0.472450000000     0.0853652  
C        C      0.799300000000     0.726110000000     0.494260000000     0.0853652  
C        C      0.823500000000     0.899480000000     0.504320000000     0.0853652  
C        C      0.754940000000     0.917530000000     0.566540000000     0.0853652  
C        C      0.519500000000     0.567180000000     0.589720000000     0.0853652  
C        C      0.574370000000     0.479940000000     0.576940000000     0.0853652  
C        C      0.563370000000     0.397980000000     0.615390000000     0.0853652  
C        C      0.480800000000     0.377980000000     0.664250000000     0.0853652  
C        C      0.628000000000     0.328630000000     0.602730000000     0.0853652  
C        C      0.697280000000     0.340140000000     0.549560000000     0.0853652  
C        C      0.772400000000     0.269140000000     0.541600000000     0.0853652  
C        C      0.697600000000     0.420570000000     0.508110000000     0.0853652  
C        C      0.756880000000     0.440070000000     0.440200000000     0.0853652  
C        C      0.248900000000     0.793100000000     0.678500000000     0.0853652  
C        C      0.286900000000     0.877800000000     0.692600000000     0.0853652  
C        C      0.239400000000     0.940200000000     0.736800000000     0.0853652  
C        C      0.156300000000     0.911000000000     0.764400000000     0.0853652  
C        C      0.124400000000     0.824600000000     0.748700000000     0.0853652  
C        C      0.374900000000     0.160500000000     0.728700000000     0.0853652  
C        C      0.343100000000     0.074200000000     0.711400000000     0.0853652  
C        C      0.276400000000     0.032800000000     0.753250000000     0.0853652  
C        C      0.248000000000     0.081800000000     0.814400000000     0.0853652  
C        C      0.283900000000     0.167300000000     0.828300000000     0.0853652  
C        C      0.968200000000     0.432270000000     0.906860000000     0.0853652  
C        C      0.928090000000     0.525960000000     0.925420000000     0.0853652  
C        C      0.953690000000     0.607860000000     0.891890000000     0.0853652  
C        C      0.031600000000     0.615500000000     0.837440000000     0.0853652  
C        C      0.910300000000     0.687280000000     0.916770000000     0.0853652  
C        C      0.845200000000     0.685170000000     0.972450000000     0.0853652  
C        C      0.799300000000     0.773890000000     0.994260000000     0.0853652  
C        C      0.823500000000     0.600520000000     0.004320000000     0.0853652  
C        C      0.754940000000     0.582470000000     0.066540000000     0.0853652  
C        C      0.519500000000     0.932820000000     0.089720000000     0.0853652  
C        C      0.574370000000     0.020060000000     0.076940000000     0.0853652  
C        C      0.563370000000     0.102020000000     0.115390000000     0.0853652  
C        C      0.480800000000     0.122020000000     0.164250000000     0.0853652  
C        C      0.628000000000     0.171370000000     0.102730000000     0.0853652  
C        C      0.697280000000     0.159860000000     0.049560000000     0.0853652  
C        C      0.772400000000     0.230860000000     0.041600000000     0.0853652  
C        C      0.697600000000     0.079430000000     0.008110000000     0.0853652  
C        C      0.756880000000     0.059930000000     0.940200000000     0.0853652  
C        C      0.248900000000     0.706900000000     0.178500000000     0.0853652  
C        C      0.286900000000     0.622200000000     0.192600000000     0.0853652  
C        C      0.239400000000     0.559800000000     0.236800000000     0.0853652  
C        C      0.156300000000     0.589000000000     0.264400000000     0.0853652  
C        C      0.124400000000     0.675400000000     0.248700000000     0.0853652  
C        C      0.374900000000     0.339500000000     0.228700000000     0.0853652  
C        C      0.343100000000     0.425800000000     0.211400000000     0.0853652  
C        C      0.276400000000     0.467200000000     0.253250000000     0.0853652  
C        C      0.248000000000     0.418200000000     0.314400000000     0.0853652  
C        C      0.283900000000     0.332700000000     0.328300000000     0.0853652  
C        C      0.031800000000     0.932270000000     0.593140000000     0.0853652  
C        C      0.071910000000     0.025960000000     0.574580000000     0.0853652  
C        C      0.046310000000     0.107860000000     0.608110000000     0.0853652  
C        C      0.968400000000     0.115500000000     0.662560000000     0.0853652  
C        C      0.089700000000     0.187280000000     0.583230000000     0.0853652  
C        C      0.154800000000     0.185170000000     0.527550000000     0.0853652  
C        C      0.200700000000     0.273890000000     0.505740000000     0.0853652  
C        C      0.176500000000     0.100520000000     0.495680000000     0.0853652  
C        C      0.245060000000     0.082470000000     0.433460000000     0.0853652  
C        C      0.480500000000     0.432820000000     0.410280000000     0.0853652  
C        C      0.425630000000     0.520060000000     0.423060000000     0.0853652  
C        C      0.436630000000     0.602020000000     0.384610000000     0.0853652  
C        C      0.519200000000     0.622020000000     0.335750000000     0.0853652  
C        C      0.372000000000     0.671370000000     0.397270000000     0.0853652  
C        C      0.302720000000     0.659860000000     0.450440000000     0.0853652  
C        C      0.227600000000     0.730860000000     0.458400000000     0.0853652  
C        C      0.302400000000     0.579430000000     0.491890000000     0.0853652  
C        C      0.243120000000     0.559930000000     0.559800000000     0.0853652  
C        C      0.751100000000     0.206900000000     0.321500000000     0.0853652  
C        C      0.713100000000     0.122200000000     0.307400000000     0.0853652  
C        C      0.760600000000     0.059800000000     0.263200000000     0.0853652  
C        C      0.843700000000     0.089000000000     0.235600000000     0.0853652  
C        C      0.875600000000     0.175400000000     0.251300000000     0.0853652  
C        C      0.625100000000     0.839500000000     0.271300000000     0.0853652  
C        C      0.656900000000     0.925800000000     0.288600000000     0.0853652  
C        C      0.723600000000     0.967200000000     0.246750000000     0.0853652  
C        C      0.752000000000     0.918200000000     0.185600000000     0.0853652  
C        C      0.716100000000     0.832700000000     0.171700000000     0.0853652  
N        N      0.134970000000     0.475630000000     0.020560000000    -0.149147   
N        N      0.361110000000     0.987960000000     0.975710000000    -0.149147   
N        N      0.831880000000     0.265060000000     0.794720000000    -0.149147   
N        N      0.654940000000     0.708970000000     0.714360000000    -0.149147   
N        N      0.865030000000     0.975630000000     0.479440000000    -0.149147   
N        N      0.638890000000     0.487960000000     0.524290000000    -0.149147   
N        N      0.168120000000     0.765060000000     0.705280000000    -0.149147   
N        N      0.345060000000     0.208970000000     0.785640000000    -0.149147   
N        N      0.865030000000     0.524370000000     0.979440000000    -0.149147   
N        N      0.638890000000     0.012040000000     0.024290000000    -0.149147   
N        N      0.168120000000     0.734940000000     0.205280000000    -0.149147   
N        N      0.345060000000     0.291030000000     0.285640000000    -0.149147   
N        N      0.134970000000     0.024370000000     0.520560000000    -0.149147   
N        N      0.361110000000     0.512040000000     0.475710000000    -0.149147   
N        N      0.831880000000     0.234940000000     0.294720000000    -0.149147   
N        N      0.654940000000     0.791030000000     0.214360000000    -0.149147   
O        O      0.975540000000     0.572670000000     0.143590000000    -0.256792   
O        O      0.061090000000     0.633330000000     0.052180000000    -0.256792   
O        O      0.888220000000     0.389470000000     0.135110000000    -0.256792   
O        O      0.985540000000     0.368480000000     0.229520000000    -0.256792   
O        O      0.156590000000     0.166770000000     0.972620000000    -0.256792   
O        O      0.283880000000     0.220510000000     0.028100000000    -0.256792   
O        O      0.281210000000     0.350330000000     0.902100000000    -0.256792   
O        O      0.259970000000     0.500620000000     0.919380000000    -0.256792   
O        O      0.459120000000     0.133660000000     0.953340000000    -0.256792   
O        O      0.539030000000     0.067220000000     0.861420000000    -0.256792   
O        O      0.507690000000     0.866370000000     0.768150000000    -0.256792   
O        O      0.595650000000     0.868840000000     0.869280000000    -0.256792   
O        O      0.147990000000     0.789870000000     0.943400000000    -0.256792   
O        O      0.255290000000     0.689250000000     0.977150000000    -0.256792   
O        O      0.244480000000     0.020480000000     0.083910000000    -0.256792   
O        O      0.199660000000     0.873460000000     0.086100000000    -0.256792   
O        O      0.024460000000     0.072670000000     0.356410000000    -0.256792   
O        O      0.938910000000     0.133330000000     0.447820000000    -0.256792   
O        O      0.111780000000     0.889470000000     0.364890000000    -0.256792   
O        O      0.014460000000     0.868480000000     0.270480000000    -0.256792   
O        O      0.843410000000     0.666770000000     0.527380000000    -0.256792   
O        O      0.716120000000     0.720510000000     0.471900000000    -0.256792   
O        O      0.718790000000     0.850330000000     0.597900000000    -0.256792   
O        O      0.740030000000     0.000620000000     0.580620000000    -0.256792   
O        O      0.540880000000     0.633660000000     0.546660000000    -0.256792   
O        O      0.460970000000     0.567220000000     0.638580000000    -0.256792   
O        O      0.492310000000     0.366370000000     0.731850000000    -0.256792   
O        O      0.404350000000     0.368840000000     0.630720000000    -0.256792   
O        O      0.852010000000     0.289870000000     0.556600000000    -0.256792   
O        O      0.744710000000     0.189250000000     0.522850000000    -0.256792   
O        O      0.755520000000     0.520480000000     0.416090000000    -0.256792   
O        O      0.800340000000     0.373460000000     0.413900000000    -0.256792   
O        O      0.024460000000     0.427330000000     0.856410000000    -0.256792   
O        O      0.938910000000     0.366670000000     0.947820000000    -0.256792   
O        O      0.111780000000     0.610530000000     0.864890000000    -0.256792   
O        O      0.014460000000     0.631520000000     0.770480000000    -0.256792   
O        O      0.843410000000     0.833230000000     0.027380000000    -0.256792   
O        O      0.716120000000     0.779490000000     0.971900000000    -0.256792   
O        O      0.718790000000     0.649670000000     0.097900000000    -0.256792   
O        O      0.740030000000     0.499380000000     0.080620000000    -0.256792   
O        O      0.540880000000     0.866340000000     0.046660000000    -0.256792   
O        O      0.460970000000     0.932780000000     0.138580000000    -0.256792   
O        O      0.492310000000     0.133630000000     0.231850000000    -0.256792   
O        O      0.404350000000     0.131160000000     0.130720000000    -0.256792   
O        O      0.852010000000     0.210130000000     0.056600000000    -0.256792   
O        O      0.744710000000     0.310750000000     0.022850000000    -0.256792   
O        O      0.755520000000     0.979520000000     0.916090000000    -0.256792   
O        O      0.800340000000     0.126540000000     0.913900000000    -0.256792   
O        O      0.975540000000     0.927330000000     0.643590000000    -0.256792   
O        O      0.061090000000     0.866670000000     0.552180000000    -0.256792   
O        O      0.888220000000     0.110530000000     0.635110000000    -0.256792   
O        O      0.985540000000     0.131520000000     0.729520000000    -0.256792   
O        O      0.156590000000     0.333230000000     0.472620000000    -0.256792   
O        O      0.283880000000     0.279490000000     0.528100000000    -0.256792   
O        O      0.281210000000     0.149670000000     0.402100000000    -0.256792   
O        O      0.259970000000     0.999380000000     0.419380000000    -0.256792   
O        O      0.459120000000     0.366340000000     0.453340000000    -0.256792   
O        O      0.539030000000     0.432780000000     0.361420000000    -0.256792   
O        O      0.507690000000     0.633630000000     0.268150000000    -0.256792   
O        O      0.595650000000     0.631160000000     0.369280000000    -0.256792   
O        O      0.147990000000     0.710130000000     0.443400000000    -0.256792   
O        O      0.255290000000     0.810750000000     0.477150000000    -0.256792   
O        O      0.244480000000     0.479520000000     0.583910000000    -0.256792   
O        O      0.199660000000     0.626540000000     0.586100000000    -0.256792   


