data_TAPHOJ_original

_audit_creation_method RASPA-1.0
_audit_creation_date 2022-1-29
_audit_author_name 'Felipe Lopes de Oliveira <felipe.lopes.oliveira@ibm.com>'

_cell_length_a    9.8561
_cell_length_b    11.9538
_cell_length_c    22.8463
_cell_angle_alpha 90
_cell_angle_beta  95.506
_cell_angle_gamma 90
_cell_volume      2679.28

_symmetry_cell_setting          triclinic
_symmetry_space_group_name_Hall 'P 1'
_symmetry_space_group_name_H-M  'P 1'
_symmetry_Int_Tables_number     1

_symmetry_equiv_pos_as_xyz 'x,y,z'

loop_
_atom_site_label
_atom_site_type_symbol
_atom_site_fract_x
_atom_site_fract_y
_atom_site_fract_z
_atom_site_charge
Zn       Zn     0.734650000000     0.219900000000     0.963340000000     0.448552   
Zn       Zn     0.234650000000     0.280100000000     0.463350000000     0.448552   
Zn       Zn     0.765350000000     0.719900000000     0.536660000000     0.448552   
Zn       Zn     0.265350000000     0.780100000000     0.036660000000     0.448552   
H        H      0.406000000000     0.548000000000     0.742600000000     0.0661733  
H        H      0.576600000000     0.988700000000     0.785500000000     0.0661733  
H        H      0.591300000000     0.143200000000     0.846500000000     0.0661733  
H        H      0.870800000000     0.997000000000     0.955300000000     0.0661733  
H        H      0.862800000000     0.838000000000     0.897100000000     0.0661733  
H        H      0.749900000000     0.728400000000     0.819100000000     0.0661733  
H        H      0.776800000000     0.806500000000     0.764600000000     0.0661733  
H        H      0.648000000000     0.728000000000     0.689600000000     0.0661733  
H        H      0.636000000000     0.621900000000     0.731600000000     0.0661733  
H        H      0.407500000000     0.735800000000     0.672500000000     0.0661733  
H        H      0.463400000000     0.617100000000     0.652400000000     0.0661733  
H        H      0.544500000000     0.644700000000     0.825400000000     0.0661733  
H        H      0.488400000000     0.764500000000     0.843300000000     0.0661733  
H        H      0.307100000000     0.751800000000     0.768400000000     0.0661733  
H        H      0.304800000000     0.644200000000     0.810200000000     0.0661733  
H        H      0.186500000000     0.527900000000     0.731700000000     0.0661733  
H        H      0.175000000000     0.640200000000     0.693500000000     0.0661733  
H        H      0.114300000000     0.609100000000     0.594900000000     0.0661733  
H        H      0.121600000000     0.504800000000     0.509500000000     0.0661733  
H        H      0.357400000000     0.376600000000     0.680400000000     0.0661733  
H        H      0.431800000000     0.483400000000     0.080300000000     0.0661733  
H        H      0.284400000000     0.234900000000     0.971100000000     0.0661733  
H        H      0.024800000000     0.429800000000     0.053100000000     0.0661733  
H        H      0.354800000000     0.278500000000     0.593200000000     0.0661733  
H        H      0.906000000000     0.952000000000     0.242600000000     0.0661733  
H        H      0.076600000000     0.511300000000     0.285500000000     0.0661733  
H        H      0.091300000000     0.356800000000     0.346500000000     0.0661733  
H        H      0.370800000000     0.503000000000     0.455300000000     0.0661733  
H        H      0.362800000000     0.662000000000     0.397100000000     0.0661733  
H        H      0.249900000000     0.771600000000     0.319100000000     0.0661733  
H        H      0.276800000000     0.693500000000     0.264600000000     0.0661733  
H        H      0.148000000000     0.772000000000     0.189600000000     0.0661733  
H        H      0.136000000000     0.878100000000     0.231600000000     0.0661733  
H        H      0.907500000000     0.764200000000     0.172500000000     0.0661733  
H        H      0.963400000000     0.882900000000     0.152400000000     0.0661733  
H        H      0.044500000000     0.855300000000     0.325400000000     0.0661733  
H        H      0.988400000000     0.735500000000     0.343300000000     0.0661733  
H        H      0.807100000000     0.748200000000     0.268400000000     0.0661733  
H        H      0.804800000000     0.855800000000     0.310200000000     0.0661733  
H        H      0.686500000000     0.972100000000     0.231700000000     0.0661733  
H        H      0.675000000000     0.859800000000     0.193500000000     0.0661733  
H        H      0.614300000000     0.890900000000     0.094900000000     0.0661733  
H        H      0.621600000000     0.995200000000     0.009500000000     0.0661733  
H        H      0.857400000000     0.123400000000     0.180400000000     0.0661733  
H        H      0.931800000000     0.016600000000     0.580300000000     0.0661733  
H        H      0.784400000000     0.265100000000     0.471100000000     0.0661733  
H        H      0.524800000000     0.070200000000     0.553100000000     0.0661733  
H        H      0.854800000000     0.221500000000     0.093200000000     0.0661733  
H        H      0.094000000000     0.048000000000     0.757400000000     0.0661733  
H        H      0.923400000000     0.488700000000     0.714500000000     0.0661733  
H        H      0.908700000000     0.643200000000     0.653500000000     0.0661733  
H        H      0.629200000000     0.497000000000     0.544700000000     0.0661733  
H        H      0.637200000000     0.338000000000     0.602900000000     0.0661733  
H        H      0.750100000000     0.228400000000     0.680900000000     0.0661733  
H        H      0.723200000000     0.306500000000     0.735400000000     0.0661733  
H        H      0.852000000000     0.228000000000     0.810400000000     0.0661733  
H        H      0.864000000000     0.121900000000     0.768400000000     0.0661733  
H        H      0.092500000000     0.235800000000     0.827500000000     0.0661733  
H        H      0.036600000000     0.117100000000     0.847600000000     0.0661733  
H        H      0.955500000000     0.144700000000     0.674600000000     0.0661733  
H        H      0.011600000000     0.264500000000     0.656700000000     0.0661733  
H        H      0.192900000000     0.251800000000     0.731600000000     0.0661733  
H        H      0.195200000000     0.144200000000     0.689800000000     0.0661733  
H        H      0.313500000000     0.027900000000     0.768300000000     0.0661733  
H        H      0.325000000000     0.140200000000     0.806500000000     0.0661733  
H        H      0.385700000000     0.109100000000     0.905100000000     0.0661733  
H        H      0.378400000000     0.004800000000     0.990500000000     0.0661733  
H        H      0.142600000000     0.876600000000     0.819600000000     0.0661733  
H        H      0.068200000000     0.983400000000     0.419700000000     0.0661733  
H        H      0.215600000000     0.734900000000     0.528900000000     0.0661733  
H        H      0.475200000000     0.929800000000     0.446900000000     0.0661733  
H        H      0.145200000000     0.778500000000     0.906800000000     0.0661733  
H        H      0.594000000000     0.452000000000     0.257400000000     0.0661733  
H        H      0.423400000000     0.011300000000     0.214500000000     0.0661733  
H        H      0.408700000000     0.856800000000     0.153500000000     0.0661733  
H        H      0.129200000000     0.003000000000     0.044700000000     0.0661733  
H        H      0.137200000000     0.162000000000     0.102900000000     0.0661733  
H        H      0.250100000000     0.271600000000     0.180900000000     0.0661733  
H        H      0.223200000000     0.193500000000     0.235400000000     0.0661733  
H        H      0.352000000000     0.272000000000     0.310400000000     0.0661733  
H        H      0.364000000000     0.378100000000     0.268400000000     0.0661733  
H        H      0.592500000000     0.264200000000     0.327500000000     0.0661733  
H        H      0.536600000000     0.382900000000     0.347600000000     0.0661733  
H        H      0.455500000000     0.355300000000     0.174600000000     0.0661733  
H        H      0.511600000000     0.235500000000     0.156700000000     0.0661733  
H        H      0.692900000000     0.248200000000     0.231600000000     0.0661733  
H        H      0.695200000000     0.355800000000     0.189800000000     0.0661733  
H        H      0.813500000000     0.472100000000     0.268300000000     0.0661733  
H        H      0.825000000000     0.359800000000     0.306500000000     0.0661733  
H        H      0.885700000000     0.390900000000     0.405100000000     0.0661733  
H        H      0.878400000000     0.495200000000     0.490500000000     0.0661733  
H        H      0.642600000000     0.623400000000     0.319600000000     0.0661733  
H        H      0.568200000000     0.516600000000     0.919700000000     0.0661733  
H        H      0.715600000000     0.765100000000     0.028900000000     0.0661733  
H        H      0.975200000000     0.570200000000     0.946900000000     0.0661733  
H        H      0.645200000000     0.721500000000     0.406800000000     0.0661733  
C        C      0.637400000000     0.987900000000     0.820400000000    -0.00425791 
C        C      0.646700000000     0.080000000000     0.857110000000    -0.00425791 
C        C      0.809500000000     0.995000000000     0.920590000000    -0.00425791 
C        C      0.805300000000     0.899800000000     0.885910000000    -0.00425791 
C        C      0.716900000000     0.894600000000     0.834630000000    -0.00425791 
C        C      0.714800000000     0.793600000000     0.795550000000    -0.00425791 
C        C      0.590800000000     0.692200000000     0.717610000000    -0.00425791 
C        C      0.453300000000     0.665900000000     0.686770000000    -0.00425791 
C        C      0.497600000000     0.713300000000     0.809850000000    -0.00425791 
C        C      0.357000000000     0.682900000000     0.781280000000    -0.00425791 
C        C      0.231200000000     0.572600000000     0.702570000000    -0.00425791 
C        C      0.235900000000     0.504800000000     0.647280000000    -0.00425791 
C        C      0.165200000000     0.541500000000     0.595650000000    -0.00425791 
C        C      0.169700000000     0.478200000000     0.544790000000    -0.00425791 
C        C      0.307700000000     0.404700000000     0.645860000000    -0.00425791 
C        C      0.224800000000     0.468300000000     0.072580000000    -0.00425791 
C        C      0.357200000000     0.442400000000     0.061690000000    -0.00425791 
C        C      0.379600000000     0.355300000000     0.022940000000    -0.00425791 
C        C      0.523900000000     0.325800000000     0.012260000000    -0.00425791 
C        C      0.269200000000     0.295000000000     0.996840000000    -0.00425791 
C        C      0.137400000000     0.321700000000     0.008020000000    -0.00425791 
C        C      0.016900000000     0.253200000000     0.982500000000    -0.00425791 
C        C      0.115000000000     0.410000000000     0.045820000000    -0.00425791 
C        C      0.305700000000     0.346800000000     0.593590000000    -0.00425791 
C        C      0.137400000000     0.512100000000     0.320400000000    -0.00425791 
C        C      0.146700000000     0.420000000000     0.357110000000    -0.00425791 
C        C      0.309500000000     0.505000000000     0.420590000000    -0.00425791 
C        C      0.305300000000     0.600200000000     0.385910000000    -0.00425791 
C        C      0.216900000000     0.605400000000     0.334630000000    -0.00425791 
C        C      0.214800000000     0.706400000000     0.295550000000    -0.00425791 
C        C      0.090800000000     0.807800000000     0.217610000000    -0.00425791 
C        C      0.953300000000     0.834100000000     0.186770000000    -0.00425791 
C        C      0.997600000000     0.786700000000     0.309850000000    -0.00425791 
C        C      0.857000000000     0.817100000000     0.281280000000    -0.00425791 
C        C      0.731200000000     0.927400000000     0.202570000000    -0.00425791 
C        C      0.735900000000     0.995200000000     0.147280000000    -0.00425791 
C        C      0.665200000000     0.958500000000     0.095650000000    -0.00425791 
C        C      0.669700000000     0.021800000000     0.044790000000    -0.00425791 
C        C      0.807700000000     0.095300000000     0.145860000000    -0.00425791 
C        C      0.724800000000     0.031700000000     0.572580000000    -0.00425791 
C        C      0.857200000000     0.057600000000     0.561690000000    -0.00425791 
C        C      0.879600000000     0.144700000000     0.522940000000    -0.00425791 
C        C      0.023900000000     0.174200000000     0.512260000000    -0.00425791 
C        C      0.769200000000     0.205000000000     0.496840000000    -0.00425791 
C        C      0.637400000000     0.178300000000     0.508020000000    -0.00425791 
C        C      0.516900000000     0.246800000000     0.482500000000    -0.00425791 
C        C      0.615000000000     0.090000000000     0.545820000000    -0.00425791 
C        C      0.805700000000     0.153200000000     0.093590000000    -0.00425791 
C        C      0.862600000000     0.487900000000     0.679600000000    -0.00425791 
C        C      0.853300000000     0.580000000000     0.642890000000    -0.00425791 
C        C      0.690500000000     0.495000000000     0.579410000000    -0.00425791 
C        C      0.694700000000     0.399800000000     0.614090000000    -0.00425791 
C        C      0.783100000000     0.394600000000     0.665370000000    -0.00425791 
C        C      0.785200000000     0.293600000000     0.704450000000    -0.00425791 
C        C      0.909200000000     0.192200000000     0.782390000000    -0.00425791 
C        C      0.046700000000     0.165900000000     0.813230000000    -0.00425791 
C        C      0.002400000000     0.213300000000     0.690150000000    -0.00425791 
C        C      0.143000000000     0.182900000000     0.718720000000    -0.00425791 
C        C      0.268800000000     0.072600000000     0.797430000000    -0.00425791 
C        C      0.264100000000     0.004800000000     0.852720000000    -0.00425791 
C        C      0.334800000000     0.041500000000     0.904350000000    -0.00425791 
C        C      0.330300000000     0.978200000000     0.955210000000    -0.00425791 
C        C      0.192300000000     0.904700000000     0.854140000000    -0.00425791 
C        C      0.275200000000     0.968300000000     0.427420000000    -0.00425791 
C        C      0.142800000000     0.942400000000     0.438310000000    -0.00425791 
C        C      0.120400000000     0.855300000000     0.477060000000    -0.00425791 
C        C      0.976100000000     0.825800000000     0.487740000000    -0.00425791 
C        C      0.230800000000     0.795000000000     0.503160000000    -0.00425791 
C        C      0.362600000000     0.821700000000     0.491980000000    -0.00425791 
C        C      0.483100000000     0.753200000000     0.517500000000    -0.00425791 
C        C      0.385000000000     0.910000000000     0.454180000000    -0.00425791 
C        C      0.194300000000     0.846800000000     0.906410000000    -0.00425791 
C        C      0.362600000000     0.012100000000     0.179600000000    -0.00425791 
C        C      0.353300000000     0.920000000000     0.142890000000    -0.00425791 
C        C      0.190500000000     0.005000000000     0.079410000000    -0.00425791 
C        C      0.194700000000     0.100200000000     0.114090000000    -0.00425791 
C        C      0.283100000000     0.105400000000     0.165370000000    -0.00425791 
C        C      0.285200000000     0.206400000000     0.204450000000    -0.00425791 
C        C      0.409200000000     0.307800000000     0.282390000000    -0.00425791 
C        C      0.546700000000     0.334100000000     0.313230000000    -0.00425791 
C        C      0.502400000000     0.286700000000     0.190150000000    -0.00425791 
C        C      0.643000000000     0.317100000000     0.218720000000    -0.00425791 
C        C      0.768800000000     0.427400000000     0.297430000000    -0.00425791 
C        C      0.764100000000     0.495200000000     0.352720000000    -0.00425791 
C        C      0.834800000000     0.458500000000     0.404350000000    -0.00425791 
C        C      0.830300000000     0.521800000000     0.455210000000    -0.00425791 
C        C      0.692300000000     0.595300000000     0.354140000000    -0.00425791 
C        C      0.775200000000     0.531700000000     0.927420000000    -0.00425791 
C        C      0.642800000000     0.557600000000     0.938310000000    -0.00425791 
C        C      0.620400000000     0.644700000000     0.977060000000    -0.00425791 
C        C      0.476100000000     0.674200000000     0.987740000000    -0.00425791 
C        C      0.730800000000     0.705000000000     0.003160000000    -0.00425791 
C        C      0.862600000000     0.678300000000     0.991980000000    -0.00425791 
C        C      0.983100000000     0.746800000000     0.017500000000    -0.00425791 
C        C      0.885000000000     0.590000000000     0.954180000000    -0.00425791 
C        C      0.694300000000     0.653200000000     0.406410000000    -0.00425791 
S        S      0.194250000000     0.569610000000     0.126730000000     0.47671    
S        S      0.694250000000     0.930390000000     0.626730000000     0.47671    
S        S      0.305750000000     0.069610000000     0.373270000000     0.47671    
S        S      0.805750000000     0.430390000000     0.873270000000     0.47671    
N        N      0.730100000000     0.084600000000     0.907000000000    -0.139559   
N        N      0.579200000000     0.767100000000     0.767700000000    -0.139559   
N        N      0.369400000000     0.607800000000     0.729070000000    -0.139559   
N        N      0.237400000000     0.382600000000     0.542930000000    -0.139559   
N        N      0.230100000000     0.415400000000     0.407000000000    -0.139559   
N        N      0.079200000000     0.732900000000     0.267700000000    -0.139559   
N        N      0.869400000000     0.892200000000     0.229070000000    -0.139559   
N        N      0.737400000000     0.117400000000     0.042930000000    -0.139559   
N        N      0.769900000000     0.584600000000     0.593000000000    -0.139559   
N        N      0.920800000000     0.267100000000     0.732300000000    -0.139559   
N        N      0.130600000000     0.107800000000     0.770930000000    -0.139559   
N        N      0.262600000000     0.882600000000     0.957070000000    -0.139559   
N        N      0.269900000000     0.915400000000     0.093000000000    -0.139559   
N        N      0.420800000000     0.232900000000     0.232300000000    -0.139559   
N        N      0.630600000000     0.392200000000     0.270930000000    -0.139559   
N        N      0.762600000000     0.617400000000     0.457070000000    -0.139559   
O        O      0.901400000000     0.293280000000     0.993190000000    -0.264714   
O        O      0.036500000000     0.165950000000     0.956030000000    -0.264714   
O        O      0.538400000000     0.261130000000     0.967910000000    -0.264714   
O        O      0.620200000000     0.362810000000     0.044920000000    -0.264714   
O        O      0.278900000000     0.667210000000     0.116180000000    -0.264714   
O        O      0.049500000000     0.591980000000     0.120910000000    -0.264714   
O        O      0.240700000000     0.516650000000     0.182810000000    -0.264714   
O        O      0.401400000000     0.206720000000     0.493190000000    -0.264714   
O        O      0.536500000000     0.334050000000     0.456030000000    -0.264714   
O        O      0.038400000000     0.238870000000     0.467910000000    -0.264714   
O        O      0.120200000000     0.137190000000     0.544920000000    -0.264714   
O        O      0.778900000000     0.832790000000     0.616180000000    -0.264714   
O        O      0.549500000000     0.908020000000     0.620910000000    -0.264714   
O        O      0.740700000000     0.983350000000     0.682810000000    -0.264714   
O        O      0.598600000000     0.793280000000     0.506810000000    -0.264714   
O        O      0.463500000000     0.665950000000     0.543970000000    -0.264714   
O        O      0.961600000000     0.761130000000     0.532090000000    -0.264714   
O        O      0.879800000000     0.862810000000     0.455080000000    -0.264714   
O        O      0.221100000000     0.167210000000     0.383820000000    -0.264714   
O        O      0.450500000000     0.091980000000     0.379090000000    -0.264714   
O        O      0.259300000000     0.016650000000     0.317190000000    -0.264714   
O        O      0.098600000000     0.706720000000     0.006810000000    -0.264714   
O        O      0.963500000000     0.834050000000     0.043970000000    -0.264714   
O        O      0.461600000000     0.738870000000     0.032090000000    -0.264714   
O        O      0.379800000000     0.637190000000     0.955080000000    -0.264714   
O        O      0.721100000000     0.332790000000     0.883820000000    -0.264714   
O        O      0.950500000000     0.408020000000     0.879090000000    -0.264714   
O        O      0.759300000000     0.483350000000     0.817190000000    -0.264714   


