data_TASXIW_original

_audit_creation_method RASPA-1.0
_audit_creation_date 2022-1-31
_audit_author_name 'Felipe Lopes de Oliveira <felipe.lopes.oliveira@ibm.com>'

_cell_length_a    13.9517
_cell_length_b    16.5474
_cell_length_c    16.5474
_cell_angle_alpha 103.395
_cell_angle_beta  110.009
_cell_angle_gamma 110.009
_cell_volume      3098.68

_symmetry_cell_setting          triclinic
_symmetry_space_group_name_Hall 'P 1'
_symmetry_space_group_name_H-M  'P 1'
_symmetry_Int_Tables_number     1

_symmetry_equiv_pos_as_xyz 'x,y,z'

loop_
_atom_site_label
_atom_site_type_symbol
_atom_site_fract_x
_atom_site_fract_y
_atom_site_fract_z
_atom_site_charge
Zn       Zn     0.287750000000     0.347550000000     0.205730000000     0.477738   
Zn       Zn     0.539220000000     0.359320000000     0.278620000000     0.477738   
Zn       Zn     0.212250000000     0.794270000000     0.652450000000     0.477738   
Zn       Zn     0.960780000000     0.721380000000     0.640680000000     0.477738   
Zn       Zn     0.712250000000     0.652450000000     0.794270000000     0.477738   
Zn       Zn     0.460780000000     0.640680000000     0.721380000000     0.477738   
Zn       Zn     0.787750000000     0.205730000000     0.347550000000     0.477738   
Zn       Zn     0.039220000000     0.278620000000     0.359320000000     0.477738   
H        H      0.654400000000     0.505900000000     0.116100000000     0.125445   
H        H      0.133400000000     0.057200000000     0.036400000000     0.125445   
H        H      0.363100000000     0.482000000000     0.553200000000     0.125445   
H        H      0.055400000000     0.349000000000     0.155400000000     0.125445   
H        H      0.864600000000     0.258200000000     0.037200000000     0.125445   
H        H      0.978900000000     0.125200000000     0.880800000000     0.125445   
H        H      0.156900000000     0.217100000000     0.000900000000     0.125445   
H        H      0.278100000000     0.393300000000     0.017100000000     0.125445   
H        H      0.507100000000     0.157500000000     0.130900000000     0.125445   
H        H      0.845600000000     0.883900000000     0.494100000000     0.125445   
H        H      0.366600000000     0.963600000000     0.942800000000     0.125445   
H        H      0.136900000000     0.446800000000     0.518000000000     0.125445   
H        H      0.444600000000     0.844600000000     0.651000000000     0.125445   
H        H      0.635400000000     0.962800000000     0.741800000000     0.125445   
H        H      0.521100000000     0.119200000000     0.874800000000     0.125445   
H        H      0.343100000000     0.999100000000     0.782900000000     0.125445   
H        H      0.221900000000     0.982900000000     0.606700000000     0.125445   
H        H      0.992900000000     0.869100000000     0.842500000000     0.125445   
H        H      0.345600000000     0.494100000000     0.883900000000     0.125445   
H        H      0.866600000000     0.942800000000     0.963600000000     0.125445   
H        H      0.636900000000     0.518000000000     0.446800000000     0.125445   
H        H      0.944600000000     0.651000000000     0.844600000000     0.125445   
H        H      0.135400000000     0.741800000000     0.962800000000     0.125445   
H        H      0.021100000000     0.874800000000     0.119200000000     0.125445   
H        H      0.843100000000     0.782900000000     0.999100000000     0.125445   
H        H      0.721900000000     0.606700000000     0.982900000000     0.125445   
H        H      0.492900000000     0.842500000000     0.869100000000     0.125445   
H        H      0.154400000000     0.116100000000     0.505900000000     0.125445   
H        H      0.633400000000     0.036400000000     0.057200000000     0.125445   
H        H      0.863100000000     0.553200000000     0.482000000000     0.125445   
H        H      0.555400000000     0.155400000000     0.349000000000     0.125445   
H        H      0.364600000000     0.037200000000     0.258200000000     0.125445   
H        H      0.478900000000     0.880800000000     0.125200000000     0.125445   
H        H      0.656900000000     0.000900000000     0.217100000000     0.125445   
H        H      0.778100000000     0.017100000000     0.393300000000     0.125445   
H        H      0.007100000000     0.130900000000     0.157500000000     0.125445   
C        C      0.463500000000     0.417300000000     0.128500000000     0.0667606  
C        C      0.481900000000     0.460300000000     0.062300000000     0.0667606  
C        C      0.590800000000     0.503900000000     0.068100000000     0.0667606  
C        C      0.391200000000     0.457500000000     0.990300000000     0.0667606  
C        C      0.346800000000     0.184200000000     0.147400000000     0.0667606  
C        C      0.300700000000     0.092900000000     0.067100000000     0.0667606  
C        C      0.181000000000     0.038900000000     0.015100000000     0.0667606  
C        C      0.368800000000     0.064000000000     0.038200000000     0.0667606  
C        C      0.257700000000     0.370900000000     0.378100000000     0.0667606  
C        C      0.384700000000     0.438300000000     0.438300000000     0.0667606  
C        C      0.468200000000     0.445400000000     0.404400000000     0.0667606  
C        C      0.420000000000     0.490900000000     0.532300000000     0.0667606  
C        C      0.038300000000     0.301800000000     0.099800000000     0.0667606  
C        C      0.925300000000     0.248900000000     0.030300000000     0.0667606  
C        C      0.905500000000     0.182000000000     0.950400000000     0.0667606  
C        C      0.992100000000     0.169300000000     0.936700000000     0.0667606  
C        C      0.095500000000     0.224200000000     0.008800000000     0.0667606  
C        C      0.036500000000     0.871500000000     0.582700000000     0.0667606  
C        C      0.018100000000     0.937700000000     0.539700000000     0.0667606  
C        C      0.909200000000     0.931900000000     0.496100000000     0.0667606  
C        C      0.108800000000     0.009700000000     0.542500000000     0.0667606  
C        C      0.153200000000     0.852600000000     0.815800000000     0.0667606  
C        C      0.199300000000     0.932900000000     0.907100000000     0.0667606  
C        C      0.319000000000     0.984900000000     0.961100000000     0.0667606  
C        C      0.131200000000     0.961800000000     0.936000000000     0.0667606  
C        C      0.242300000000     0.621900000000     0.629100000000     0.0667606  
C        C      0.115300000000     0.561700000000     0.561700000000     0.0667606  
C        C      0.031800000000     0.595600000000     0.554600000000     0.0667606  
C        C      0.080000000000     0.467700000000     0.509100000000     0.0667606  
C        C      0.461700000000     0.900200000000     0.698200000000     0.0667606  
C        C      0.574700000000     0.969700000000     0.751100000000     0.0667606  
C        C      0.594500000000     0.049600000000     0.818000000000     0.0667606  
C        C      0.507900000000     0.063300000000     0.830700000000     0.0667606  
C        C      0.404500000000     0.991200000000     0.775800000000     0.0667606  
C        C      0.536500000000     0.582700000000     0.871500000000     0.0667606  
C        C      0.518100000000     0.539700000000     0.937700000000     0.0667606  
C        C      0.409200000000     0.496100000000     0.931900000000     0.0667606  
C        C      0.608800000000     0.542500000000     0.009700000000     0.0667606  
C        C      0.653200000000     0.815800000000     0.852600000000     0.0667606  
C        C      0.699300000000     0.907100000000     0.932900000000     0.0667606  
C        C      0.819000000000     0.961100000000     0.984900000000     0.0667606  
C        C      0.631200000000     0.936000000000     0.961800000000     0.0667606  
C        C      0.742300000000     0.629100000000     0.621900000000     0.0667606  
C        C      0.615300000000     0.561700000000     0.561700000000     0.0667606  
C        C      0.531800000000     0.554600000000     0.595600000000     0.0667606  
C        C      0.580000000000     0.509100000000     0.467700000000     0.0667606  
C        C      0.961700000000     0.698200000000     0.900200000000     0.0667606  
C        C      0.074700000000     0.751100000000     0.969700000000     0.0667606  
C        C      0.094500000000     0.818000000000     0.049600000000     0.0667606  
C        C      0.007900000000     0.830700000000     0.063300000000     0.0667606  
C        C      0.904500000000     0.775800000000     0.991200000000     0.0667606  
C        C      0.963500000000     0.128500000000     0.417300000000     0.0667606  
C        C      0.981900000000     0.062300000000     0.460300000000     0.0667606  
C        C      0.090800000000     0.068100000000     0.503900000000     0.0667606  
C        C      0.891200000000     0.990300000000     0.457500000000     0.0667606  
C        C      0.846800000000     0.147400000000     0.184200000000     0.0667606  
C        C      0.800700000000     0.067100000000     0.092900000000     0.0667606  
C        C      0.681000000000     0.015100000000     0.038900000000     0.0667606  
C        C      0.868800000000     0.038200000000     0.064000000000     0.0667606  
C        C      0.757700000000     0.378100000000     0.370900000000     0.0667606  
C        C      0.884700000000     0.438300000000     0.438300000000     0.0667606  
C        C      0.968200000000     0.404400000000     0.445400000000     0.0667606  
C        C      0.920000000000     0.532300000000     0.490900000000     0.0667606  
C        C      0.538300000000     0.099800000000     0.301800000000     0.0667606  
C        C      0.425300000000     0.030300000000     0.248900000000     0.0667606  
C        C      0.405500000000     0.950400000000     0.182000000000     0.0667606  
C        C      0.492100000000     0.936700000000     0.169300000000     0.0667606  
C        C      0.595500000000     0.008800000000     0.224200000000     0.0667606  
N        N      0.125400000000     0.287900000000     0.090700000000    -0.129523   
N        N      0.784600000000     0.111300000000     0.875100000000    -0.129523   
N        N      0.374600000000     0.909300000000     0.712100000000    -0.129523   
N        N      0.715400000000     0.124900000000     0.888700000000    -0.129523   
N        N      0.874600000000     0.712100000000     0.909300000000    -0.129523   
N        N      0.215400000000     0.888700000000     0.124900000000    -0.129523   
N        N      0.625400000000     0.090700000000     0.287900000000    -0.129523   
N        N      0.284600000000     0.875100000000     0.111300000000    -0.129523   
O        O      0.365200000000     0.378200000000     0.118800000000    -0.32893    
O        O      0.548100000000     0.421900000000     0.190100000000    -0.32893    
O        O      0.280000000000     0.415400000000     0.976400000000    -0.32893    
O        O      0.282400000000     0.211900000000     0.163500000000    -0.32893    
O        O      0.458400000000     0.229900000000     0.193100000000    -0.32893    
O        O      0.485300000000     0.109500000000     0.084500000000    -0.32893    
O        O      0.440300000000     0.395200000000     0.317200000000    -0.32893    
O        O      0.217600000000     0.327300000000     0.292500000000    -0.32893    
O        O      0.198200000000     0.362400000000     0.421000000000    -0.32893    
O        O      0.134800000000     0.881200000000     0.621800000000    -0.32893    
O        O      0.951900000000     0.809900000000     0.578100000000    -0.32893    
O        O      0.220000000000     0.023600000000     0.584600000000    -0.32893    
O        O      0.217600000000     0.836500000000     0.788100000000    -0.32893    
O        O      0.041600000000     0.806900000000     0.770100000000    -0.32893    
O        O      0.014700000000     0.915500000000     0.890500000000    -0.32893    
O        O      0.059700000000     0.682800000000     0.604800000000    -0.32893    
O        O      0.282400000000     0.707500000000     0.672700000000    -0.32893    
O        O      0.301800000000     0.579000000000     0.637600000000    -0.32893    
O        O      0.634800000000     0.621800000000     0.881200000000    -0.32893    
O        O      0.451900000000     0.578100000000     0.809900000000    -0.32893    
O        O      0.720000000000     0.584600000000     0.023600000000    -0.32893    
O        O      0.717600000000     0.788100000000     0.836500000000    -0.32893    
O        O      0.541600000000     0.770100000000     0.806900000000    -0.32893    
O        O      0.514700000000     0.890500000000     0.915500000000    -0.32893    
O        O      0.559700000000     0.604800000000     0.682800000000    -0.32893    
O        O      0.782400000000     0.672700000000     0.707500000000    -0.32893    
O        O      0.801800000000     0.637600000000     0.579000000000    -0.32893    
O        O      0.865200000000     0.118800000000     0.378200000000    -0.32893    
O        O      0.048100000000     0.190100000000     0.421900000000    -0.32893    
O        O      0.780000000000     0.976400000000     0.415400000000    -0.32893    
O        O      0.782400000000     0.163500000000     0.211900000000    -0.32893    
O        O      0.958400000000     0.193100000000     0.229900000000    -0.32893    
O        O      0.985300000000     0.084500000000     0.109500000000    -0.32893    
O        O      0.940300000000     0.317200000000     0.395200000000    -0.32893    
O        O      0.717600000000     0.292500000000     0.327300000000    -0.32893    
O        O      0.698200000000     0.421000000000     0.362400000000    -0.32893    


