data_TECTUS_original

_audit_creation_method RASPA-1.0
_audit_creation_date 2022-1-31
_audit_author_name 'Felipe Lopes de Oliveira <felipe.lopes.oliveira@ibm.com>'

_cell_length_a    9.9261
_cell_length_b    9.9261
_cell_length_c    18.2873
_cell_angle_alpha 95.7769
_cell_angle_beta  103.313
_cell_angle_gamma 112.974
_cell_volume      1577.38

_symmetry_cell_setting          triclinic
_symmetry_space_group_name_Hall 'P 1'
_symmetry_space_group_name_H-M  'P 1'
_symmetry_Int_Tables_number     1

_symmetry_equiv_pos_as_xyz 'x,y,z'

loop_
_atom_site_label
_atom_site_type_symbol
_atom_site_fract_x
_atom_site_fract_y
_atom_site_fract_z
_atom_site_charge
Ca       Ca     0.790080000000     0.450280000000     0.048720000000     1.30891    
Ca       Ca     0.901560000000     0.741360000000     0.451280000000     1.30891    
Ca       Ca     0.209920000000     0.549720000000     0.951280000000     1.30891    
Ca       Ca     0.098440000000     0.258640000000     0.548720000000     1.30891    
Ca       Ca     0.706260000000     0.456260000000     0.250000000000     1.30891    
Ca       Ca     0.293740000000     0.543740000000     0.750000000000     1.30891    
H        H      0.885600000000     0.819800000000     0.275200000000    -0.0222187  
H        H      0.758800000000     0.949200000000     0.080000000000    -0.0222187  
H        H      0.911000000000     0.235600000000     0.283600000000    -0.0222187  
H        H      0.044600000000     0.610400000000     0.224800000000    -0.0222187  
H        H      0.369200000000     0.678800000000     0.420000000000    -0.0222187  
H        H      0.452000000000     0.627400000000     0.216400000000    -0.0222187  
H        H      0.114400000000     0.180200000000     0.724800000000    -0.0222187  
H        H      0.241200000000     0.050800000000     0.920000000000    -0.0222187  
H        H      0.089000000000     0.764400000000     0.716400000000    -0.0222187  
H        H      0.955400000000     0.389600000000     0.775200000000    -0.0222187  
H        H      0.630800000000     0.321200000000     0.580000000000    -0.0222187  
H        H      0.548000000000     0.372600000000     0.783600000000    -0.0222187  
C        C      0.872370000000     0.892900000000     0.250270000000     0.109148   
C        C      0.814570000000     0.861000000000     0.170770000000     0.109148   
C        C      0.830230000000     0.110640000000     0.175870000000     0.109148   
C        C      0.778700000000     0.709000000000     0.126300000000     0.109148   
C        C      0.795230000000     0.969940000000     0.133370000000     0.109148   
C        C      0.808220000000     0.227000000000     0.134620000000     0.109148   
C        C      0.972460000000     0.064900000000     0.379360000000     0.109148   
C        C      0.887650000000     0.142000000000     0.255250000000     0.109148   
C        C      0.910730000000     0.034000000000     0.292930000000     0.109148   
C        C      0.142630000000     0.622100000000     0.249730000000     0.109148   
C        C      0.190230000000     0.643800000000     0.329230000000     0.109148   
C        C      0.434770000000     0.654360000000     0.324130000000     0.109148   
C        C      0.082700000000     0.652400000000     0.373700000000     0.109148   
C        C      0.336570000000     0.661860000000     0.366630000000     0.109148   
C        C      0.592380000000     0.673600000000     0.365380000000     0.109148   
C        C      0.185540000000     0.593100000000     0.120640000000     0.109148   
C        C      0.386750000000     0.632400000000     0.244750000000     0.109148   
C        C      0.241070000000     0.617800000000     0.207070000000     0.109148   
C        C      0.127630000000     0.107100000000     0.749730000000     0.109148   
C        C      0.185430000000     0.139000000000     0.829230000000     0.109148   
C        C      0.169770000000     0.889360000000     0.824130000000     0.109148   
C        C      0.221300000000     0.291000000000     0.873700000000     0.109148   
C        C      0.204770000000     0.030060000000     0.866630000000     0.109148   
C        C      0.191780000000     0.773000000000     0.865380000000     0.109148   
C        C      0.027540000000     0.935100000000     0.620640000000     0.109148   
C        C      0.112350000000     0.858000000000     0.744750000000     0.109148   
C        C      0.089270000000     0.966000000000     0.707070000000     0.109148   
C        C      0.857370000000     0.377900000000     0.750270000000     0.109148   
C        C      0.809770000000     0.356200000000     0.670770000000     0.109148   
C        C      0.565230000000     0.345640000000     0.675870000000     0.109148   
C        C      0.917300000000     0.347600000000     0.626300000000     0.109148   
C        C      0.663430000000     0.338140000000     0.633370000000     0.109148   
C        C      0.407620000000     0.326400000000     0.634620000000     0.109148   
C        C      0.814460000000     0.406900000000     0.879360000000     0.109148   
C        C      0.613250000000     0.367600000000     0.755250000000     0.109148   
C        C      0.758930000000     0.382200000000     0.792930000000     0.109148   
O        O      0.767880000000     0.604400000000     0.161480000000    -0.47984    
O        O      0.763840000000     0.690990000000     0.055030000000    -0.47984    
O        O      0.795390000000     0.334330000000     0.171520000000    -0.47984    
O        O      0.803900000000     0.216430000000     0.065330000000    -0.47984    
O        O      0.011960000000     0.195400000000     0.415760000000    -0.47984    
O        O      0.981770000000     0.959610000000     0.409780000000    -0.47984    
O        O      0.942920000000     0.606400000000     0.338520000000    -0.47984    
O        O      0.135960000000     0.708810000000     0.444970000000    -0.47984    
O        O      0.662810000000     0.623870000000     0.328480000000    -0.47984    
O        O      0.651100000000     0.738570000000     0.434670000000    -0.47984    
O        O      0.279640000000     0.596200000000     0.084240000000    -0.47984    
O        O      0.049830000000     0.571990000000     0.090220000000    -0.47984    
O        O      0.232120000000     0.395600000000     0.838520000000    -0.47984    
O        O      0.236160000000     0.309010000000     0.944970000000    -0.47984    
O        O      0.204610000000     0.665670000000     0.828480000000    -0.47984    
O        O      0.196100000000     0.783570000000     0.934670000000    -0.47984    
O        O      0.988040000000     0.804600000000     0.584240000000    -0.47984    
O        O      0.018230000000     0.040390000000     0.590220000000    -0.47984    
O        O      0.057080000000     0.393600000000     0.661480000000    -0.47984    
O        O      0.864040000000     0.291190000000     0.555030000000    -0.47984    
O        O      0.337190000000     0.376130000000     0.671520000000    -0.47984    
O        O      0.348900000000     0.261430000000     0.565330000000    -0.47984    
O        O      0.720360000000     0.403800000000     0.915760000000    -0.47984    
O        O      0.950170000000     0.428010000000     0.909780000000    -0.47984    


