data_TECVEE_original

_audit_creation_method RASPA-1.0
_audit_creation_date 2022-1-31
_audit_author_name 'Felipe Lopes de Oliveira <felipe.lopes.oliveira@ibm.com>'

_cell_length_a    10.3322
_cell_length_b    10.3322
_cell_length_c    18.981
_cell_angle_alpha 81.09
_cell_angle_beta  81.09
_cell_angle_gamma 82.4101
_cell_volume      1965.53

_symmetry_cell_setting          triclinic
_symmetry_space_group_name_Hall 'P 1'
_symmetry_space_group_name_H-M  'P 1'
_symmetry_Int_Tables_number     1

_symmetry_equiv_pos_as_xyz 'x,y,z'

loop_
_atom_site_label
_atom_site_type_symbol
_atom_site_fract_x
_atom_site_fract_y
_atom_site_fract_z
_atom_site_charge
Ca       Ca     0.076770000000     0.852350000000     0.065950000000     1.40741    
Ca       Ca     0.147650000000     0.923230000000     0.434050000000     1.40741    
Ca       Ca     0.923230000000     0.147650000000     0.934050000000     1.40741    
Ca       Ca     0.852350000000     0.076770000000     0.565950000000     1.40741    
Ca       Ca     0.198070000000     0.801930000000     0.250000000000     1.40741    
Ca       Ca     0.801930000000     0.198070000000     0.750000000000     1.40741    
H        H      0.635900000000     0.818900000000     0.228600000000     0.153274   
H        H      0.559900000000     0.883900000000     0.434800000000     0.153274   
H        H      0.380200000000     0.131600000000     0.154800000000     0.153274   
H        H      0.526900000000     0.080500000000     0.128700000000     0.153274   
H        H      0.446100000000     0.000100000000     0.193800000000     0.153274   
H        H      0.919900000000     0.927300000000     0.322000000000     0.153274   
H        H      0.506200000000     0.779600000000     0.134700000000     0.153274   
H        H      0.596100000000     0.863100000000     0.075500000000     0.153274   
H        H      0.500200000000     0.776200000000     0.053000000000     0.153274   
H        H      0.181100000000     0.364100000000     0.271400000000     0.153274   
H        H      0.116100000000     0.440100000000     0.065200000000     0.153274   
H        H      0.868400000000     0.619800000000     0.345200000000     0.153274   
H        H      0.919500000000     0.473100000000     0.371300000000     0.153274   
H        H      0.999900000000     0.553900000000     0.306200000000     0.153274   
H        H      0.072700000000     0.080100000000     0.178000000000     0.153274   
H        H      0.220400000000     0.493800000000     0.365300000000     0.153274   
H        H      0.136900000000     0.403900000000     0.424500000000     0.153274   
H        H      0.223800000000     0.499800000000     0.447000000000     0.153274   
H        H      0.364100000000     0.181100000000     0.771400000000     0.153274   
H        H      0.440100000000     0.116100000000     0.565200000000     0.153274   
H        H      0.619800000000     0.868400000000     0.845200000000     0.153274   
H        H      0.473100000000     0.919500000000     0.871300000000     0.153274   
H        H      0.553900000000     0.999900000000     0.806200000000     0.153274   
H        H      0.080100000000     0.072700000000     0.678000000000     0.153274   
H        H      0.493800000000     0.220400000000     0.865300000000     0.153274   
H        H      0.403900000000     0.136900000000     0.924500000000     0.153274   
H        H      0.499800000000     0.223800000000     0.947000000000     0.153274   
H        H      0.818900000000     0.635900000000     0.728600000000     0.153274   
H        H      0.883900000000     0.559900000000     0.934800000000     0.153274   
H        H      0.131600000000     0.380200000000     0.654800000000     0.153274   
H        H      0.080500000000     0.526900000000     0.628700000000     0.153274   
H        H      0.000100000000     0.446100000000     0.693800000000     0.153274   
H        H      0.927300000000     0.919900000000     0.822000000000     0.153274   
H        H      0.779600000000     0.506200000000     0.634700000000     0.153274   
H        H      0.863100000000     0.596100000000     0.575500000000     0.153274   
H        H      0.776200000000     0.500200000000     0.553000000000     0.153274   
C        C      0.884400000000     0.871000000000     0.193500000000    -0.048702   
C        C      0.664000000000     0.842400000000     0.268700000000    -0.048702   
C        C      0.436400000000     0.814200000000     0.335400000000    -0.048702   
C        C      0.748500000000     0.910100000000     0.388700000000    -0.048702   
C        C      0.577000000000     0.844000000000     0.331900000000    -0.048702   
C        C      0.791700000000     0.874500000000     0.263200000000    -0.048702   
C        C      0.618200000000     0.880000000000     0.392400000000    -0.048702   
C        C      0.441200000000     0.054600000000     0.148200000000    -0.048702   
C        C      0.834000000000     0.907200000000     0.324400000000    -0.048702   
C        C      0.793300000000     0.948900000000     0.453900000000    -0.048702   
C        C      0.511500000000     0.830700000000     0.087700000000    -0.048702   
C        C      0.129000000000     0.115600000000     0.306500000000    -0.048702   
C        C      0.157600000000     0.336000000000     0.231300000000    -0.048702   
C        C      0.185800000000     0.563600000000     0.164600000000    -0.048702   
C        C      0.089900000000     0.251500000000     0.111300000000    -0.048702   
C        C      0.156000000000     0.423000000000     0.168100000000    -0.048702   
C        C      0.125500000000     0.208300000000     0.236800000000    -0.048702   
C        C      0.120000000000     0.381800000000     0.107600000000    -0.048702   
C        C      0.945400000000     0.558800000000     0.351800000000    -0.048702   
C        C      0.092800000000     0.166000000000     0.175600000000    -0.048702   
C        C      0.051100000000     0.206700000000     0.046100000000    -0.048702   
C        C      0.169300000000     0.488500000000     0.412300000000    -0.048702   
C        C      0.115600000000     0.129000000000     0.806500000000    -0.048702   
C        C      0.336000000000     0.157600000000     0.731300000000    -0.048702   
C        C      0.563600000000     0.185800000000     0.664600000000    -0.048702   
C        C      0.251500000000     0.089900000000     0.611300000000    -0.048702   
C        C      0.423000000000     0.156000000000     0.668100000000    -0.048702   
C        C      0.208300000000     0.125500000000     0.736800000000    -0.048702   
C        C      0.381800000000     0.120000000000     0.607600000000    -0.048702   
C        C      0.558800000000     0.945400000000     0.851800000000    -0.048702   
C        C      0.166000000000     0.092800000000     0.675600000000    -0.048702   
C        C      0.206700000000     0.051100000000     0.546100000000    -0.048702   
C        C      0.488500000000     0.169300000000     0.912300000000    -0.048702   
C        C      0.871000000000     0.884400000000     0.693500000000    -0.048702   
C        C      0.842400000000     0.664000000000     0.768700000000    -0.048702   
C        C      0.814200000000     0.436400000000     0.835400000000    -0.048702   
C        C      0.910100000000     0.748500000000     0.888700000000    -0.048702   
C        C      0.844000000000     0.577000000000     0.831900000000    -0.048702   
C        C      0.874500000000     0.791700000000     0.763200000000    -0.048702   
C        C      0.880000000000     0.618200000000     0.892400000000    -0.048702   
C        C      0.054600000000     0.441200000000     0.648200000000    -0.048702   
C        C      0.907200000000     0.834000000000     0.824400000000    -0.048702   
C        C      0.948900000000     0.793300000000     0.953900000000    -0.048702   
C        C      0.830700000000     0.511500000000     0.587700000000    -0.048702   
S        S      0.386700000000     0.964560000000     0.087820000000     0.364705   
S        S      0.035440000000     0.613300000000     0.412180000000     0.364705   
S        S      0.613300000000     0.035440000000     0.912180000000     0.364705   
S        S      0.964560000000     0.386700000000     0.587820000000     0.364705   
O        O      0.007000000000     0.849400000000     0.196980000000    -0.474223   
O        O      0.915100000000     0.952900000000     0.454260000000    -0.474223   
O        O      0.265000000000     0.904600000000     0.129150000000    -0.474223   
O        O      0.358800000000     0.823400000000     0.392100000000    -0.474223   
O        O      0.708400000000     0.977800000000     0.505000000000    -0.474223   
O        O      0.840000000000     0.887400000000     0.134410000000    -0.474223   
O        O      0.407600000000     0.782600000000     0.278200000000    -0.474223   
O        O      0.150600000000     0.993000000000     0.303020000000    -0.474223   
O        O      0.047100000000     0.084900000000     0.045740000000    -0.474223   
O        O      0.095400000000     0.735000000000     0.370850000000    -0.474223   
O        O      0.176600000000     0.641200000000     0.107900000000    -0.474223   
O        O      0.022200000000     0.291600000000     0.995000000000    -0.474223   
O        O      0.112600000000     0.160000000000     0.365590000000    -0.474223   
O        O      0.217400000000     0.592400000000     0.221800000000    -0.474223   
O        O      0.993000000000     0.150600000000     0.803020000000    -0.474223   
O        O      0.084900000000     0.047100000000     0.545740000000    -0.474223   
O        O      0.735000000000     0.095400000000     0.870850000000    -0.474223   
O        O      0.641200000000     0.176600000000     0.607900000000    -0.474223   
O        O      0.291600000000     0.022200000000     0.495000000000    -0.474223   
O        O      0.160000000000     0.112600000000     0.865590000000    -0.474223   
O        O      0.592400000000     0.217400000000     0.721800000000    -0.474223   
O        O      0.849400000000     0.007000000000     0.696980000000    -0.474223   
O        O      0.952900000000     0.915100000000     0.954260000000    -0.474223   
O        O      0.904600000000     0.265000000000     0.629150000000    -0.474223   
O        O      0.823400000000     0.358800000000     0.892100000000    -0.474223   
O        O      0.977800000000     0.708400000000     0.005000000000    -0.474223   
O        O      0.887400000000     0.840000000000     0.634410000000    -0.474223   
O        O      0.782600000000     0.407600000000     0.778200000000    -0.474223   


