data_TEDHAN_original

_audit_creation_method RASPA-1.0
_audit_creation_date 2022-1-31
_audit_author_name 'Felipe Lopes de Oliveira <felipe.lopes.oliveira@ibm.com>'

_cell_length_a    18.2694
_cell_length_b    18.2694
_cell_length_c    18.2694
_cell_angle_alpha 105.025
_cell_angle_beta  105.025
_cell_angle_gamma 105.025
_cell_volume      5328.29

_symmetry_cell_setting          triclinic
_symmetry_space_group_name_Hall 'P 1'
_symmetry_space_group_name_H-M  'P 1'
_symmetry_Int_Tables_number     1

_symmetry_equiv_pos_as_xyz 'x,y,z'

loop_
_atom_site_label
_atom_site_type_symbol
_atom_site_fract_x
_atom_site_fract_y
_atom_site_fract_z
_atom_site_charge
Zn       Zn     0.487850000000     0.055460000000     0.598800000000     0.432151   
Zn       Zn     0.598800000000     0.487850000000     0.055460000000     0.432151   
Zn       Zn     0.055460000000     0.598800000000     0.487850000000     0.432151   
Zn       Zn     0.444540000000     0.012150000000     0.901200000000     0.432151   
Zn       Zn     0.012150000000     0.901200000000     0.444540000000     0.432151   
Zn       Zn     0.901200000000     0.444540000000     0.012150000000     0.432151   
Zn       Zn     0.512150000000     0.944540000000     0.401200000000     0.432151   
Zn       Zn     0.401200000000     0.512150000000     0.944540000000     0.432151   
Zn       Zn     0.944540000000     0.401200000000     0.512150000000     0.432151   
Zn       Zn     0.555460000000     0.987850000000     0.098800000000     0.432151   
Zn       Zn     0.987850000000     0.098800000000     0.555460000000     0.432151   
Zn       Zn     0.098800000000     0.555460000000     0.987850000000     0.432151   
H        H      0.317600000000     0.014000000000     0.648000000000     0.0894535  
H        H      0.648000000000     0.317600000000     0.014000000000     0.0894535  
H        H      0.014000000000     0.648000000000     0.317600000000     0.0894535  
H        H      0.486000000000     0.182400000000     0.852000000000     0.0894535  
H        H      0.182400000000     0.852000000000     0.486000000000     0.0894535  
H        H      0.852000000000     0.486000000000     0.182400000000     0.0894535  
H        H      0.682400000000     0.986000000000     0.352000000000     0.0894535  
H        H      0.352000000000     0.682400000000     0.986000000000     0.0894535  
H        H      0.986000000000     0.352000000000     0.682400000000     0.0894535  
H        H      0.514000000000     0.817600000000     0.148000000000     0.0894535  
H        H      0.817600000000     0.148000000000     0.514000000000     0.0894535  
H        H      0.148000000000     0.514000000000     0.817600000000     0.0894535  
H        H      0.283550000000     0.216450000000     0.750000000000     0.0894535  
H        H      0.750000000000     0.283550000000     0.216450000000     0.0894535  
H        H      0.216450000000     0.750000000000     0.283550000000     0.0894535  
H        H      0.716450000000     0.783550000000     0.250000000000     0.0894535  
H        H      0.250000000000     0.716450000000     0.783550000000     0.0894535  
H        H      0.783550000000     0.250000000000     0.716450000000     0.0894535  
C        C      0.206000000000     0.077400000000     0.630200000000     0.0399826  
C        C      0.335400000000     0.063200000000     0.689900000000     0.0399826  
C        C      0.287000000000     0.109000000000     0.691300000000     0.0399826  
C        C      0.630200000000     0.206000000000     0.077400000000     0.0399826  
C        C      0.689900000000     0.335400000000     0.063200000000     0.0399826  
C        C      0.691300000000     0.287000000000     0.109000000000     0.0399826  
C        C      0.077400000000     0.630200000000     0.206000000000     0.0399826  
C        C      0.063200000000     0.689900000000     0.335400000000     0.0399826  
C        C      0.109000000000     0.691300000000     0.287000000000     0.0399826  
C        C      0.422600000000     0.294000000000     0.869800000000     0.0399826  
C        C      0.436800000000     0.164600000000     0.810100000000     0.0399826  
C        C      0.391000000000     0.213000000000     0.808700000000     0.0399826  
C        C      0.294000000000     0.869800000000     0.422600000000     0.0399826  
C        C      0.164600000000     0.810100000000     0.436800000000     0.0399826  
C        C      0.213000000000     0.808700000000     0.391000000000     0.0399826  
C        C      0.869800000000     0.422600000000     0.294000000000     0.0399826  
C        C      0.810100000000     0.436800000000     0.164600000000     0.0399826  
C        C      0.808700000000     0.391000000000     0.213000000000     0.0399826  
C        C      0.794000000000     0.922600000000     0.369800000000     0.0399826  
C        C      0.664600000000     0.936800000000     0.310100000000     0.0399826  
C        C      0.713000000000     0.891000000000     0.308700000000     0.0399826  
C        C      0.369800000000     0.794000000000     0.922600000000     0.0399826  
C        C      0.310100000000     0.664600000000     0.936800000000     0.0399826  
C        C      0.308700000000     0.713000000000     0.891000000000     0.0399826  
C        C      0.922600000000     0.369800000000     0.794000000000     0.0399826  
C        C      0.936800000000     0.310100000000     0.664600000000     0.0399826  
C        C      0.891000000000     0.308700000000     0.713000000000     0.0399826  
C        C      0.577400000000     0.706000000000     0.130200000000     0.0399826  
C        C      0.563200000000     0.835400000000     0.189900000000     0.0399826  
C        C      0.609000000000     0.787000000000     0.191300000000     0.0399826  
C        C      0.706000000000     0.130200000000     0.577400000000     0.0399826  
C        C      0.835400000000     0.189900000000     0.563200000000     0.0399826  
C        C      0.787000000000     0.191300000000     0.609000000000     0.0399826  
C        C      0.130200000000     0.577400000000     0.706000000000     0.0399826  
C        C      0.189900000000     0.563200000000     0.835400000000     0.0399826  
C        C      0.191300000000     0.609000000000     0.787000000000     0.0399826  
C        C      0.462250000000     0.037750000000     0.750000000000     0.0399826  
C        C      0.410950000000     0.089050000000     0.750000000000     0.0399826  
C        C      0.315650000000     0.184350000000     0.750000000000     0.0399826  
C        C      0.750000000000     0.462250000000     0.037750000000     0.0399826  
C        C      0.750000000000     0.410950000000     0.089050000000     0.0399826  
C        C      0.750000000000     0.315650000000     0.184350000000     0.0399826  
C        C      0.037750000000     0.750000000000     0.462250000000     0.0399826  
C        C      0.089050000000     0.750000000000     0.410950000000     0.0399826  
C        C      0.184350000000     0.750000000000     0.315650000000     0.0399826  
C        C      0.537750000000     0.962250000000     0.250000000000     0.0399826  
C        C      0.589050000000     0.910950000000     0.250000000000     0.0399826  
C        C      0.684350000000     0.815650000000     0.250000000000     0.0399826  
C        C      0.250000000000     0.537750000000     0.962250000000     0.0399826  
C        C      0.250000000000     0.589050000000     0.910950000000     0.0399826  
C        C      0.250000000000     0.684350000000     0.815650000000     0.0399826  
C        C      0.962250000000     0.250000000000     0.537750000000     0.0399826  
C        C      0.910950000000     0.250000000000     0.589050000000     0.0399826  
C        C      0.815650000000     0.250000000000     0.684350000000     0.0399826  
N        N      0.089190000000     0.072230000000     0.564890000000    -0.0743807  
N        N      0.095460000000     0.999860000000     0.537300000000    -0.0743807  
N        N      0.168900000000     0.004020000000     0.579340000000    -0.0743807  
N        N      0.158740000000     0.121100000000     0.623980000000    -0.0743807  
N        N      0.492890000000     0.020010000000     0.695300000000    -0.0743807  
N        N      0.535100000000     0.971500000000     0.717800000000    -0.0743807  
N        N      0.564890000000     0.089190000000     0.072230000000    -0.0743807  
N        N      0.537300000000     0.095460000000     0.999860000000    -0.0743807  
N        N      0.579340000000     0.168900000000     0.004020000000    -0.0743807  
N        N      0.623980000000     0.158740000000     0.121100000000    -0.0743807  
N        N      0.695300000000     0.492890000000     0.020010000000    -0.0743807  
N        N      0.717800000000     0.535100000000     0.971500000000    -0.0743807  
N        N      0.072230000000     0.564890000000     0.089190000000    -0.0743807  
N        N      0.999860000000     0.537300000000     0.095460000000    -0.0743807  
N        N      0.004020000000     0.579340000000     0.168900000000    -0.0743807  
N        N      0.121100000000     0.623980000000     0.158740000000    -0.0743807  
N        N      0.020010000000     0.695300000000     0.492890000000    -0.0743807  
N        N      0.971500000000     0.717800000000     0.535100000000    -0.0743807  
N        N      0.427770000000     0.410810000000     0.935110000000    -0.0743807  
N        N      0.500140000000     0.404540000000     0.962700000000    -0.0743807  
N        N      0.495980000000     0.331100000000     0.920660000000    -0.0743807  
N        N      0.378900000000     0.341260000000     0.876020000000    -0.0743807  
N        N      0.479990000000     0.007110000000     0.804700000000    -0.0743807  
N        N      0.528500000000     0.964900000000     0.782200000000    -0.0743807  
N        N      0.410810000000     0.935110000000     0.427770000000    -0.0743807  
N        N      0.404540000000     0.962700000000     0.500140000000    -0.0743807  
N        N      0.331100000000     0.920660000000     0.495980000000    -0.0743807  
N        N      0.341260000000     0.876020000000     0.378900000000    -0.0743807  
N        N      0.007110000000     0.804700000000     0.479990000000    -0.0743807  
N        N      0.964900000000     0.782200000000     0.528500000000    -0.0743807  
N        N      0.935110000000     0.427770000000     0.410810000000    -0.0743807  
N        N      0.962700000000     0.500140000000     0.404540000000    -0.0743807  
N        N      0.920660000000     0.495980000000     0.331100000000    -0.0743807  
N        N      0.876020000000     0.378900000000     0.341260000000    -0.0743807  
N        N      0.804700000000     0.479990000000     0.007110000000    -0.0743807  
N        N      0.782200000000     0.528500000000     0.964900000000    -0.0743807  
N        N      0.910810000000     0.927770000000     0.435110000000    -0.0743807  
N        N      0.904540000000     0.000140000000     0.462700000000    -0.0743807  
N        N      0.831100000000     0.995980000000     0.420660000000    -0.0743807  
N        N      0.841260000000     0.878900000000     0.376020000000    -0.0743807  
N        N      0.507110000000     0.979990000000     0.304700000000    -0.0743807  
N        N      0.464900000000     0.028500000000     0.282200000000    -0.0743807  
N        N      0.435110000000     0.910810000000     0.927770000000    -0.0743807  
N        N      0.462700000000     0.904540000000     0.000140000000    -0.0743807  
N        N      0.420660000000     0.831100000000     0.995980000000    -0.0743807  
N        N      0.376020000000     0.841260000000     0.878900000000    -0.0743807  
N        N      0.304700000000     0.507110000000     0.979990000000    -0.0743807  
N        N      0.282200000000     0.464900000000     0.028500000000    -0.0743807  
N        N      0.927770000000     0.435110000000     0.910810000000    -0.0743807  
N        N      0.000140000000     0.462700000000     0.904540000000    -0.0743807  
N        N      0.995980000000     0.420660000000     0.831100000000    -0.0743807  
N        N      0.878900000000     0.376020000000     0.841260000000    -0.0743807  
N        N      0.979990000000     0.304700000000     0.507110000000    -0.0743807  
N        N      0.028500000000     0.282200000000     0.464900000000    -0.0743807  
N        N      0.572230000000     0.589190000000     0.064890000000    -0.0743807  
N        N      0.499860000000     0.595460000000     0.037300000000    -0.0743807  
N        N      0.504020000000     0.668900000000     0.079340000000    -0.0743807  
N        N      0.621100000000     0.658740000000     0.123980000000    -0.0743807  
N        N      0.520010000000     0.992890000000     0.195300000000    -0.0743807  
N        N      0.471500000000     0.035100000000     0.217800000000    -0.0743807  
N        N      0.589190000000     0.064890000000     0.572230000000    -0.0743807  
N        N      0.595460000000     0.037300000000     0.499860000000    -0.0743807  
N        N      0.668900000000     0.079340000000     0.504020000000    -0.0743807  
N        N      0.658740000000     0.123980000000     0.621100000000    -0.0743807  
N        N      0.992890000000     0.195300000000     0.520010000000    -0.0743807  
N        N      0.035100000000     0.217800000000     0.471500000000    -0.0743807  
N        N      0.064890000000     0.572230000000     0.589190000000    -0.0743807  
N        N      0.037300000000     0.499860000000     0.595460000000    -0.0743807  
N        N      0.079340000000     0.504020000000     0.668900000000    -0.0743807  
N        N      0.123980000000     0.621100000000     0.658740000000    -0.0743807  
N        N      0.195300000000     0.520010000000     0.992890000000    -0.0743807  
N        N      0.217800000000     0.471500000000     0.035100000000    -0.0743807  
Cl       Cl     0.467840000000     0.170410000000     0.609940000000    -0.299968   
Cl       Cl     0.609940000000     0.467840000000     0.170410000000    -0.299968   
Cl       Cl     0.170410000000     0.609940000000     0.467840000000    -0.299968   
Cl       Cl     0.329590000000     0.032160000000     0.890060000000    -0.299968   
Cl       Cl     0.032160000000     0.890060000000     0.329590000000    -0.299968   
Cl       Cl     0.890060000000     0.329590000000     0.032160000000    -0.299968   
Cl       Cl     0.532160000000     0.829590000000     0.390060000000    -0.299968   
Cl       Cl     0.390060000000     0.532160000000     0.829590000000    -0.299968   
Cl       Cl     0.829590000000     0.390060000000     0.532160000000    -0.299968   
Cl       Cl     0.670410000000     0.967840000000     0.109940000000    -0.299968   
Cl       Cl     0.967840000000     0.109940000000     0.670410000000    -0.299968   
Cl       Cl     0.109940000000     0.670410000000     0.967840000000    -0.299968   


