data_TEDLUK_original

_audit_creation_method RASPA-1.0
_audit_creation_date 2022-1-29
_audit_author_name 'Felipe Lopes de Oliveira <felipe.lopes.oliveira@ibm.com>'

_cell_length_a    11.387
_cell_length_b    14.6914
_cell_length_c    14.6914
_cell_angle_alpha 119.749
_cell_angle_beta  95.3221
_cell_angle_gamma 95.3221
_cell_volume      2097.07

_symmetry_cell_setting          triclinic
_symmetry_space_group_name_Hall 'P 1'
_symmetry_space_group_name_H-M  'P 1'
_symmetry_Int_Tables_number     1

_symmetry_equiv_pos_as_xyz 'x,y,z'

loop_
_atom_site_label
_atom_site_type_symbol
_atom_site_fract_x
_atom_site_fract_y
_atom_site_fract_z
_atom_site_charge
Zn       Zn     0.595770000000     0.165220000000     0.733600000000     0.464158   
Zn       Zn     0.904230000000     0.266400000000     0.834780000000     0.464158   
Zn       Zn     0.404230000000     0.834780000000     0.266400000000     0.464158   
Zn       Zn     0.095770000000     0.733600000000     0.165220000000     0.464158   
H        H      0.591200000000     0.441000000000     0.671400000000     0.0659006  
H        H      0.602000000000     0.523700000000     0.574900000000     0.0659006  
H        H      0.627800000000     0.248900000000     0.314900000000     0.0659006  
H        H      0.612400000000     0.163600000000     0.410800000000     0.0659006  
H        H      0.508300000000     0.266900000000     0.042500000000     0.0659006  
H        H      0.479100000000     0.334700000000     0.217500000000     0.0659006  
H        H      0.822500000000     0.472400000000     0.318200000000     0.0659006  
H        H      0.851700000000     0.403100000000     0.143500000000     0.0659006  
H        H      0.373900000000     0.044900000000     0.547500000000     0.0659006  
H        H      0.380300000000     0.099100000000     0.834700000000     0.0659006  
H        H      0.166100000000     0.920900000000     0.463300000000     0.0659006  
H        H      0.101100000000     0.896200000000     0.540200000000     0.0659006  
H        H      0.034600000000     0.063000000000     0.611600000000     0.0659006  
H        H      0.095500000000     0.083400000000     0.530400000000     0.0659006  
H        H      0.190400000000     0.005500000000     0.739100000000     0.0659006  
H        H      0.908800000000     0.328600000000     0.559000000000     0.0659006  
H        H      0.898000000000     0.425100000000     0.476300000000     0.0659006  
H        H      0.872200000000     0.685100000000     0.751100000000     0.0659006  
H        H      0.887600000000     0.589200000000     0.836400000000     0.0659006  
H        H      0.991700000000     0.957500000000     0.733100000000     0.0659006  
H        H      0.020900000000     0.782500000000     0.665300000000     0.0659006  
H        H      0.677500000000     0.681800000000     0.527600000000     0.0659006  
H        H      0.648300000000     0.856500000000     0.596900000000     0.0659006  
H        H      0.126100000000     0.452500000000     0.955100000000     0.0659006  
H        H      0.119700000000     0.165300000000     0.900900000000     0.0659006  
H        H      0.333900000000     0.536700000000     0.079100000000     0.0659006  
H        H      0.398900000000     0.459800000000     0.103800000000     0.0659006  
H        H      0.465400000000     0.388400000000     0.937000000000     0.0659006  
H        H      0.404500000000     0.469600000000     0.916600000000     0.0659006  
H        H      0.309600000000     0.260900000000     0.994500000000     0.0659006  
H        H      0.408800000000     0.559000000000     0.328600000000     0.0659006  
H        H      0.398000000000     0.476300000000     0.425100000000     0.0659006  
H        H      0.372200000000     0.751100000000     0.685100000000     0.0659006  
H        H      0.387600000000     0.836400000000     0.589200000000     0.0659006  
H        H      0.491700000000     0.733100000000     0.957500000000     0.0659006  
H        H      0.520900000000     0.665300000000     0.782500000000     0.0659006  
H        H      0.177500000000     0.527600000000     0.681800000000     0.0659006  
H        H      0.148300000000     0.596900000000     0.856500000000     0.0659006  
H        H      0.626100000000     0.955100000000     0.452500000000     0.0659006  
H        H      0.619700000000     0.900900000000     0.165300000000     0.0659006  
H        H      0.833900000000     0.079100000000     0.536700000000     0.0659006  
H        H      0.898900000000     0.103800000000     0.459800000000     0.0659006  
H        H      0.965400000000     0.937000000000     0.388400000000     0.0659006  
H        H      0.904500000000     0.916600000000     0.469600000000     0.0659006  
H        H      0.809600000000     0.994500000000     0.260900000000     0.0659006  
H        H      0.091200000000     0.671400000000     0.441000000000     0.0659006  
H        H      0.102000000000     0.574900000000     0.523700000000     0.0659006  
H        H      0.127800000000     0.314900000000     0.248900000000     0.0659006  
H        H      0.112400000000     0.410800000000     0.163600000000     0.0659006  
H        H      0.008300000000     0.042500000000     0.266900000000     0.0659006  
H        H      0.979100000000     0.217500000000     0.334700000000     0.0659006  
H        H      0.322500000000     0.318200000000     0.472400000000     0.0659006  
H        H      0.351700000000     0.143500000000     0.403100000000     0.0659006  
H        H      0.873900000000     0.547500000000     0.044900000000     0.0659006  
H        H      0.880300000000     0.834700000000     0.099100000000     0.0659006  
H        H      0.666100000000     0.463300000000     0.920900000000     0.0659006  
H        H      0.601100000000     0.540200000000     0.896200000000     0.0659006  
H        H      0.534600000000     0.611600000000     0.063000000000     0.0659006  
H        H      0.595500000000     0.530400000000     0.083400000000     0.0659006  
H        H      0.690400000000     0.739100000000     0.005500000000     0.0659006  
C        C      0.602100000000     0.293700000000     0.552100000000     0.0281139  
C        C      0.598500000000     0.402220000000     0.599980000000     0.0281139  
C        C      0.605700000000     0.451530000000     0.542670000000     0.0281139  
C        C      0.618600000000     0.394920000000     0.436480000000     0.0281139  
C        C      0.620600000000     0.286860000000     0.386340000000     0.0281139  
C        C      0.611900000000     0.236430000000     0.443970000000     0.0281139  
C        C      0.597300000000     0.238410000000     0.613590000000     0.0281139  
C        C      0.683600000000     0.328110000000     0.075490000000     0.0281139  
C        C      0.571600000000     0.307620000000     0.097580000000     0.0281139  
C        C      0.554000000000     0.348150000000     0.202250000000     0.0281139  
C        C      0.648300000000     0.408210000000     0.283190000000     0.0281139  
C        C      0.759800000000     0.430450000000     0.262750000000     0.0281139  
C        C      0.776700000000     0.389360000000     0.158240000000     0.0281139  
C        C      0.703900000000     0.284550000000     0.962450000000     0.0281139  
C        C      0.352800000000     0.048120000000     0.608680000000     0.0281139  
C        C      0.354200000000     0.076300000000     0.763700000000     0.0281139  
C        C      0.141700000000     0.952660000000     0.532740000000     0.0281139  
C        C      0.056100000000     0.028810000000     0.540990000000     0.0281139  
C        C      0.897900000000     0.447900000000     0.706300000000     0.0281139  
C        C      0.901500000000     0.400020000000     0.597780000000     0.0281139  
C        C      0.894300000000     0.457330000000     0.548470000000     0.0281139  
C        C      0.881400000000     0.563520000000     0.605080000000     0.0281139  
C        C      0.879400000000     0.613660000000     0.713140000000     0.0281139  
C        C      0.888100000000     0.556030000000     0.763570000000     0.0281139  
C        C      0.902700000000     0.386410000000     0.761590000000     0.0281139  
C        C      0.816400000000     0.924510000000     0.671890000000     0.0281139  
C        C      0.928400000000     0.902420000000     0.692380000000     0.0281139  
C        C      0.946000000000     0.797750000000     0.651850000000     0.0281139  
C        C      0.851700000000     0.716810000000     0.591790000000     0.0281139  
C        C      0.740200000000     0.737250000000     0.569550000000     0.0281139  
C        C      0.723300000000     0.841760000000     0.610640000000     0.0281139  
C        C      0.796100000000     0.037550000000     0.715450000000     0.0281139  
C        C      0.147200000000     0.391320000000     0.951880000000     0.0281139  
C        C      0.145800000000     0.236300000000     0.923700000000     0.0281139  
C        C      0.358300000000     0.467260000000     0.047340000000     0.0281139  
C        C      0.443900000000     0.459010000000     0.971190000000     0.0281139  
C        C      0.397900000000     0.706300000000     0.447900000000     0.0281139  
C        C      0.401500000000     0.597780000000     0.400020000000     0.0281139  
C        C      0.394300000000     0.548470000000     0.457330000000     0.0281139  
C        C      0.381400000000     0.605080000000     0.563520000000     0.0281139  
C        C      0.379400000000     0.713140000000     0.613660000000     0.0281139  
C        C      0.388100000000     0.763570000000     0.556030000000     0.0281139  
C        C      0.402700000000     0.761590000000     0.386410000000     0.0281139  
C        C      0.316400000000     0.671890000000     0.924510000000     0.0281139  
C        C      0.428400000000     0.692380000000     0.902420000000     0.0281139  
C        C      0.446000000000     0.651850000000     0.797750000000     0.0281139  
C        C      0.351700000000     0.591790000000     0.716810000000     0.0281139  
C        C      0.240200000000     0.569550000000     0.737250000000     0.0281139  
C        C      0.223300000000     0.610640000000     0.841760000000     0.0281139  
C        C      0.296100000000     0.715450000000     0.037550000000     0.0281139  
C        C      0.647200000000     0.951880000000     0.391320000000     0.0281139  
C        C      0.645800000000     0.923700000000     0.236300000000     0.0281139  
C        C      0.858300000000     0.047340000000     0.467260000000     0.0281139  
C        C      0.943900000000     0.971190000000     0.459010000000     0.0281139  
C        C      0.102100000000     0.552100000000     0.293700000000     0.0281139  
C        C      0.098500000000     0.599980000000     0.402220000000     0.0281139  
C        C      0.105700000000     0.542670000000     0.451530000000     0.0281139  
C        C      0.118600000000     0.436480000000     0.394920000000     0.0281139  
C        C      0.120600000000     0.386340000000     0.286860000000     0.0281139  
C        C      0.111900000000     0.443970000000     0.236430000000     0.0281139  
C        C      0.097300000000     0.613590000000     0.238410000000     0.0281139  
C        C      0.183600000000     0.075490000000     0.328110000000     0.0281139  
C        C      0.071600000000     0.097580000000     0.307620000000     0.0281139  
C        C      0.054000000000     0.202250000000     0.348150000000     0.0281139  
C        C      0.148300000000     0.283190000000     0.408210000000     0.0281139  
C        C      0.259800000000     0.262750000000     0.430450000000     0.0281139  
C        C      0.276700000000     0.158240000000     0.389360000000     0.0281139  
C        C      0.203900000000     0.962450000000     0.284550000000     0.0281139  
C        C      0.852800000000     0.608680000000     0.048120000000     0.0281139  
C        C      0.854200000000     0.763700000000     0.076300000000     0.0281139  
C        C      0.641700000000     0.532740000000     0.952660000000     0.0281139  
C        C      0.556100000000     0.540990000000     0.028810000000     0.0281139  
N        N      0.424000000000     0.094080000000     0.702120000000    -0.146622   
N        N      0.247400000000     0.024460000000     0.714540000000    -0.146622   
N        N      0.248200000000     0.007710000000     0.615490000000    -0.146622   
N        N      0.076000000000     0.297880000000     0.905920000000    -0.146622   
N        N      0.252600000000     0.285460000000     0.975540000000    -0.146622   
N        N      0.251800000000     0.384510000000     0.992290000000    -0.146622   
N        N      0.576000000000     0.905920000000     0.297880000000    -0.146622   
N        N      0.752600000000     0.975540000000     0.285460000000    -0.146622   
N        N      0.751800000000     0.992290000000     0.384510000000    -0.146622   
N        N      0.924000000000     0.702120000000     0.094080000000    -0.146622   
N        N      0.747400000000     0.714540000000     0.024460000000    -0.146622   
N        N      0.748200000000     0.615490000000     0.007710000000    -0.146622   
O        O      0.584600000000     0.139530000000     0.567470000000    -0.30377    
O        O      0.608300000000     0.293320000000     0.714680000000    -0.30377    
O        O      0.632200000000     0.456070000000     0.389230000000    -0.30377    
O        O      0.615300000000     0.231370000000     0.890710000000    -0.30377    
O        O      0.806700000000     0.306170000000     0.948630000000    -0.30377    
O        O      0.915400000000     0.432530000000     0.860470000000    -0.30377    
O        O      0.891700000000     0.285320000000     0.706680000000    -0.30377    
O        O      0.867800000000     0.610770000000     0.543930000000    -0.30377    
O        O      0.884700000000     0.109290000000     0.768630000000    -0.30377    
O        O      0.693300000000     0.051370000000     0.693830000000    -0.30377    
O        O      0.415400000000     0.860470000000     0.432530000000    -0.30377    
O        O      0.391700000000     0.706680000000     0.285320000000    -0.30377    
O        O      0.367800000000     0.543930000000     0.610770000000    -0.30377    
O        O      0.384700000000     0.768630000000     0.109290000000    -0.30377    
O        O      0.193300000000     0.693830000000     0.051370000000    -0.30377    
O        O      0.084600000000     0.567470000000     0.139530000000    -0.30377    
O        O      0.108300000000     0.714680000000     0.293320000000    -0.30377    
O        O      0.132200000000     0.389230000000     0.456070000000    -0.30377    
O        O      0.115300000000     0.890710000000     0.231370000000    -0.30377    
O        O      0.306700000000     0.948630000000     0.306170000000    -0.30377    


