data_TEPGUS_original

_audit_creation_method RASPA-1.0
_audit_creation_date 2022-1-31
_audit_author_name 'Felipe Lopes de Oliveira <felipe.lopes.oliveira@ibm.com>'

_cell_length_a    9.1663
_cell_length_b    10.3496
_cell_length_c    18.2266
_cell_angle_alpha 90
_cell_angle_beta  90
_cell_angle_gamma 90
_cell_volume      1729.11

_symmetry_cell_setting          triclinic
_symmetry_space_group_name_Hall 'P 1'
_symmetry_space_group_name_H-M  'P 1'
_symmetry_Int_Tables_number     1

_symmetry_equiv_pos_as_xyz 'x,y,z'

loop_
_atom_site_label
_atom_site_type_symbol
_atom_site_fract_x
_atom_site_fract_y
_atom_site_fract_z
_atom_site_charge
Zn       Zn     0.878220000000     0.528370000000     0.099750000000     0.38131    
Zn       Zn     0.378220000000     0.471630000000     0.900250000000     0.38131    
Zn       Zn     0.878220000000     0.971630000000     0.599750000000     0.38131    
Zn       Zn     0.378220000000     0.028370000000     0.400250000000     0.38131    
H        H      0.462000000000     0.139500000000     0.116000000000     0.103233   
H        H      0.962000000000     0.860500000000     0.884000000000     0.103233   
H        H      0.462000000000     0.360500000000     0.616000000000     0.103233   
H        H      0.962000000000     0.639500000000     0.384000000000     0.103233   
H        H      0.081500000000     0.550600000000     0.973500000000     0.103233   
H        H      0.581500000000     0.449400000000     0.026500000000     0.103233   
H        H      0.081500000000     0.949400000000     0.473500000000     0.103233   
H        H      0.581500000000     0.050600000000     0.526500000000     0.103233   
H        H      0.934900000000     0.963800000000     0.218400000000     0.103233   
H        H      0.434900000000     0.036200000000     0.781600000000     0.103233   
H        H      0.934900000000     0.536200000000     0.718400000000     0.103233   
H        H      0.434900000000     0.463800000000     0.281600000000     0.103233   
H        H      0.222500000000     0.694700000000     0.280900000000     0.103233   
H        H      0.722500000000     0.305300000000     0.719100000000     0.103233   
H        H      0.222500000000     0.805300000000     0.780900000000     0.103233   
H        H      0.722500000000     0.194700000000     0.219100000000     0.103233   
H        H      0.104000000000     0.550700000000     0.206700000000     0.103233   
H        H      0.604000000000     0.449300000000     0.793300000000     0.103233   
H        H      0.104000000000     0.949300000000     0.706700000000     0.103233   
H        H      0.604000000000     0.050700000000     0.293300000000     0.103233   
H        H      0.060300000000     0.205000000000     0.236400000000     0.103233   
H        H      0.560300000000     0.795000000000     0.763600000000     0.103233   
H        H      0.060300000000     0.295000000000     0.736400000000     0.103233   
H        H      0.560300000000     0.705000000000     0.263600000000     0.103233   
H        H      0.977200000000     0.306900000000     0.196600000000     0.103233   
H        H      0.477200000000     0.693100000000     0.803400000000     0.103233   
H        H      0.977200000000     0.193100000000     0.696600000000     0.103233   
H        H      0.477200000000     0.806900000000     0.303400000000     0.103233   
H        H      0.748000000000     0.892800000000     0.135600000000     0.103233   
H        H      0.248000000000     0.107200000000     0.864400000000     0.103233   
H        H      0.748000000000     0.607200000000     0.635600000000     0.103233   
H        H      0.248000000000     0.392800000000     0.364400000000     0.103233   
H        H      0.746100000000     0.758800000000     0.105800000000     0.103233   
H        H      0.246100000000     0.241200000000     0.894200000000     0.103233   
H        H      0.746100000000     0.741200000000     0.605800000000     0.103233   
H        H      0.246100000000     0.258800000000     0.394200000000     0.103233   
C        C      0.275800000000     0.345000000000     0.041900000000     0.072698   
C        C      0.775800000000     0.655000000000     0.958100000000     0.072698   
C        C      0.275800000000     0.155000000000     0.541900000000     0.072698   
C        C      0.775800000000     0.845000000000     0.458100000000     0.072698   
C        C      0.160100000000     0.351500000000     0.089200000000     0.072698   
C        C      0.660100000000     0.648500000000     0.910800000000     0.072698   
C        C      0.160100000000     0.148500000000     0.589200000000     0.072698   
C        C      0.660100000000     0.851500000000     0.410800000000     0.072698   
C        C      0.159300000000     0.267100000000     0.151500000000     0.072698   
C        C      0.659300000000     0.732900000000     0.848500000000     0.072698   
C        C      0.159300000000     0.232900000000     0.651500000000     0.072698   
C        C      0.659300000000     0.767100000000     0.348500000000     0.072698   
C        C      0.384100000000     0.195600000000     0.108600000000     0.072698   
C        C      0.884100000000     0.804400000000     0.891400000000     0.072698   
C        C      0.384100000000     0.304400000000     0.608600000000     0.072698   
C        C      0.884100000000     0.695600000000     0.391400000000     0.072698   
C        C      0.123100000000     0.486100000000     0.002300000000     0.072698   
C        C      0.623100000000     0.513900000000     0.997700000000     0.072698   
C        C      0.123100000000     0.013900000000     0.502300000000     0.072698   
C        C      0.623100000000     0.986100000000     0.497700000000     0.072698   
C        C      0.903500000000     0.789200000000     0.171200000000     0.072698   
C        C      0.403500000000     0.210800000000     0.828800000000     0.072698   
C        C      0.903500000000     0.710800000000     0.671200000000     0.072698   
C        C      0.403500000000     0.289200000000     0.328800000000     0.072698   
C        C      0.971100000000     0.879900000000     0.216200000000     0.072698   
C        C      0.471100000000     0.120100000000     0.783800000000     0.072698   
C        C      0.971100000000     0.620100000000     0.716200000000     0.072698   
C        C      0.471100000000     0.379900000000     0.283800000000     0.072698   
C        C      0.090400000000     0.846600000000     0.257400000000     0.072698   
C        C      0.590400000000     0.153400000000     0.742600000000     0.072698   
C        C      0.090400000000     0.653400000000     0.757400000000     0.072698   
C        C      0.590400000000     0.346600000000     0.242600000000     0.072698   
C        C      0.142000000000     0.720600000000     0.253600000000     0.072698   
C        C      0.642000000000     0.279400000000     0.746400000000     0.072698   
C        C      0.142000000000     0.779400000000     0.753600000000     0.072698   
C        C      0.642000000000     0.220600000000     0.246400000000     0.072698   
C        C      0.070900000000     0.635500000000     0.208500000000     0.072698   
C        C      0.570900000000     0.364500000000     0.791500000000     0.072698   
C        C      0.070900000000     0.864500000000     0.708500000000     0.072698   
C        C      0.570900000000     0.135500000000     0.291500000000     0.072698   
C        C      0.161600000000     0.942300000000     0.307300000000     0.072698   
C        C      0.661600000000     0.057700000000     0.692700000000     0.072698   
C        C      0.161600000000     0.557700000000     0.807300000000     0.072698   
C        C      0.661600000000     0.442300000000     0.192700000000     0.072698   
N        N      0.253100000000     0.429500000000     0.985700000000    -0.221778   
N        N      0.753100000000     0.570500000000     0.014300000000    -0.221778   
N        N      0.253100000000     0.070500000000     0.485700000000    -0.221778   
N        N      0.753100000000     0.929500000000     0.514300000000    -0.221778   
N        N      0.060800000000     0.441500000000     0.062900000000    -0.221778   
N        N      0.560800000000     0.558500000000     0.937100000000    -0.221778   
N        N      0.060800000000     0.058500000000     0.562900000000    -0.221778   
N        N      0.560800000000     0.941500000000     0.437100000000    -0.221778   
N        N      0.394300000000     0.268800000000     0.050200000000    -0.221778   
N        N      0.894300000000     0.731200000000     0.949800000000    -0.221778   
N        N      0.394300000000     0.231200000000     0.550200000000    -0.221778   
N        N      0.894300000000     0.768800000000     0.449800000000    -0.221778   
N        N      0.279300000000     0.189500000000     0.158800000000    -0.221778   
N        N      0.779300000000     0.810500000000     0.841200000000    -0.221778   
N        N      0.279300000000     0.310500000000     0.658800000000    -0.221778   
N        N      0.779300000000     0.689500000000     0.341200000000    -0.221778   
N        N      0.053200000000     0.258700000000     0.200600000000    -0.221778   
N        N      0.553200000000     0.741300000000     0.799400000000    -0.221778   
N        N      0.053200000000     0.241300000000     0.700600000000    -0.221778   
N        N      0.553200000000     0.758700000000     0.299400000000    -0.221778   
N        N      0.956300000000     0.667700000000     0.166800000000    -0.221778   
N        N      0.456300000000     0.332300000000     0.833200000000    -0.221778   
N        N      0.956300000000     0.832300000000     0.666800000000    -0.221778   
N        N      0.456300000000     0.167700000000     0.333200000000    -0.221778   
N        N      0.785600000000     0.816800000000     0.133200000000    -0.221778   
N        N      0.285600000000     0.183200000000     0.866800000000    -0.221778   
N        N      0.785600000000     0.683200000000     0.633200000000    -0.221778   
N        N      0.285600000000     0.316800000000     0.366800000000    -0.221778   
O        O      0.110000000000     0.049800000000     0.318600000000    -0.27882    
O        O      0.610000000000     0.950200000000     0.681400000000    -0.27882    
O        O      0.110000000000     0.450200000000     0.818600000000    -0.27882    
O        O      0.610000000000     0.549800000000     0.181400000000    -0.27882    
O        O      0.283400000000     0.902700000000     0.336720000000    -0.27882    
O        O      0.783400000000     0.097300000000     0.663280000000    -0.27882    
O        O      0.283400000000     0.597300000000     0.836720000000    -0.27882    
O        O      0.783400000000     0.402700000000     0.163280000000    -0.27882    


