data_TEVZUQ_original

_audit_creation_method RASPA-1.0
_audit_creation_date 2022-1-30
_audit_author_name 'Felipe Lopes de Oliveira <felipe.lopes.oliveira@ibm.com>'

_cell_length_a    9.825
_cell_length_b    11.2958
_cell_length_c    14.7329
_cell_angle_alpha 91.4943
_cell_angle_beta  90
_cell_angle_gamma 90
_cell_volume      1634.52

_symmetry_cell_setting          triclinic
_symmetry_space_group_name_Hall 'P 1'
_symmetry_space_group_name_H-M  'P 1'
_symmetry_Int_Tables_number     1

_symmetry_equiv_pos_as_xyz 'x,y,z'

loop_
_atom_site_label
_atom_site_type_symbol
_atom_site_fract_x
_atom_site_fract_y
_atom_site_fract_z
_atom_site_charge
Zn       Zn     0.926330000000     0.756950000000     0.131710000000     0.526641   
Zn       Zn     0.115040000000     0.741720000000     0.307920000000     0.526641   
Zn       Zn     0.426330000000     0.743050000000     0.368290000000     0.526641   
Zn       Zn     0.615040000000     0.758280000000     0.192080000000     0.526641   
Zn       Zn     0.073670000000     0.243050000000     0.868290000000     0.526641   
Zn       Zn     0.884960000000     0.258280000000     0.692080000000     0.526641   
Zn       Zn     0.573670000000     0.256950000000     0.631710000000     0.526641   
Zn       Zn     0.384960000000     0.241720000000     0.807920000000     0.526641   
Zn       Zn     0.000000000000     0.500000000000     0.000000000000     0.526641   
Zn       Zn     0.500000000000     0.000000000000     0.500000000000     0.526641   
Zn       Zn     0.000000000000     0.000000000000     0.000000000000     0.526641   
Zn       Zn     0.500000000000     0.500000000000     0.500000000000     0.526641   
H        H      0.762700000000     0.855500000000     0.368200000000    -0.0500608  
H        H      0.049800000000     0.478100000000     0.259900000000    -0.0500608  
H        H      0.618100000000     0.560800000000     0.046200000000    -0.0500608  
H        H      0.207400000000     0.979100000000     0.222800000000    -0.0500608  
H        H      0.163600000000     0.695800000000     0.928800000000    -0.0500608  
H        H      0.706500000000     0.998100000000     0.021800000000    -0.0500608  
H        H      0.262700000000     0.644500000000     0.131800000000    -0.0500608  
H        H      0.549800000000     0.021900000000     0.240100000000    -0.0500608  
H        H      0.118100000000     0.939200000000     0.453800000000    -0.0500608  
H        H      0.707400000000     0.520900000000     0.277200000000    -0.0500608  
H        H      0.663600000000     0.804200000000     0.571200000000    -0.0500608  
H        H      0.206500000000     0.501900000000     0.478200000000    -0.0500608  
H        H      0.237300000000     0.144500000000     0.631800000000    -0.0500608  
H        H      0.950200000000     0.521900000000     0.740100000000    -0.0500608  
H        H      0.381900000000     0.439200000000     0.953800000000    -0.0500608  
H        H      0.792600000000     0.020900000000     0.777200000000    -0.0500608  
H        H      0.836400000000     0.304200000000     0.071200000000    -0.0500608  
H        H      0.293500000000     0.001900000000     0.978200000000    -0.0500608  
H        H      0.737300000000     0.355500000000     0.868200000000    -0.0500608  
H        H      0.450200000000     0.978100000000     0.759900000000    -0.0500608  
H        H      0.881900000000     0.060800000000     0.546200000000    -0.0500608  
H        H      0.292600000000     0.479100000000     0.722800000000    -0.0500608  
H        H      0.336400000000     0.195800000000     0.428800000000    -0.0500608  
H        H      0.793500000000     0.498100000000     0.521800000000    -0.0500608  
C        C      0.834600000000     0.826500000000     0.330800000000     0.389138   
C        C      0.023600000000     0.519000000000     0.207100000000     0.389138   
C        C      0.712700000000     0.576700000000     0.052100000000     0.389138   
C        C      0.141900000000     0.952200000000     0.179500000000     0.389138   
C        C      0.105700000000     0.741600000000     0.967600000000     0.389138   
C        C      0.724800000000     0.934300000000     0.060700000000     0.389138   
C        C      0.334600000000     0.673500000000     0.169200000000     0.389138   
C        C      0.523600000000     0.981000000000     0.292900000000     0.389138   
C        C      0.212700000000     0.923300000000     0.447900000000     0.389138   
C        C      0.641900000000     0.547800000000     0.320500000000     0.389138   
C        C      0.605700000000     0.758400000000     0.532400000000     0.389138   
C        C      0.224800000000     0.565700000000     0.439300000000     0.389138   
C        C      0.165400000000     0.173500000000     0.669200000000     0.389138   
C        C      0.976400000000     0.481000000000     0.792900000000     0.389138   
C        C      0.287300000000     0.423300000000     0.947900000000     0.389138   
C        C      0.858100000000     0.047800000000     0.820500000000     0.389138   
C        C      0.894300000000     0.258400000000     0.032400000000     0.389138   
C        C      0.275200000000     0.065700000000     0.939300000000     0.389138   
C        C      0.665400000000     0.326500000000     0.830800000000     0.389138   
C        C      0.476400000000     0.019000000000     0.707100000000     0.389138   
C        C      0.787300000000     0.076700000000     0.552100000000     0.389138   
C        C      0.358100000000     0.452200000000     0.679500000000     0.389138   
C        C      0.394300000000     0.241600000000     0.467600000000     0.389138   
C        C      0.775200000000     0.434300000000     0.560700000000     0.389138   
O        O      0.807200000000     0.807290000000     0.247390000000    -0.301199   
O        O      0.946500000000     0.810790000000     0.368090000000    -0.301199   
O        O      0.012800000000     0.630010000000     0.215310000000    -0.301199   
O        O      0.003600000000     0.457800000000     0.137600000000    -0.301199   
O        O      0.748300000000     0.655000000000     0.112100000000    -0.301199   
O        O      0.790800000000     0.519930000000     0.000930000000    -0.301199   
O        O      0.087300000000     0.851160000000     0.193160000000    -0.301199   
O        O      0.118500000000     0.017800000000     0.116300000000    -0.301199   
O        O      0.029300000000     0.685010000000     0.023510000000    -0.301199   
O        O      0.109400000000     0.849280000000     0.960780000000    -0.301199   
O        O      0.848500000000     0.899690000000     0.064890000000    -0.301199   
O        O      0.626600000000     0.893760000000     0.101860000000    -0.301199   
O        O      0.307200000000     0.692710000000     0.252610000000    -0.301199   
O        O      0.446500000000     0.689210000000     0.131910000000    -0.301199   
O        O      0.512800000000     0.869990000000     0.284690000000    -0.301199   
O        O      0.503600000000     0.042200000000     0.362400000000    -0.301199   
O        O      0.248300000000     0.845000000000     0.387900000000    -0.301199   
O        O      0.290800000000     0.980070000000     0.499070000000    -0.301199   
O        O      0.587300000000     0.648840000000     0.306840000000    -0.301199   
O        O      0.618500000000     0.482200000000     0.383700000000    -0.301199   
O        O      0.529300000000     0.814990000000     0.476490000000    -0.301199   
O        O      0.609400000000     0.650720000000     0.539220000000    -0.301199   
O        O      0.348500000000     0.600310000000     0.435110000000    -0.301199   
O        O      0.126600000000     0.606240000000     0.398140000000    -0.301199   
O        O      0.192800000000     0.192710000000     0.752610000000    -0.301199   
O        O      0.053500000000     0.189210000000     0.631910000000    -0.301199   
O        O      0.987200000000     0.369990000000     0.784690000000    -0.301199   
O        O      0.996400000000     0.542200000000     0.862400000000    -0.301199   
O        O      0.251700000000     0.345000000000     0.887900000000    -0.301199   
O        O      0.209200000000     0.480070000000     0.999070000000    -0.301199   
O        O      0.912700000000     0.148840000000     0.806840000000    -0.301199   
O        O      0.881500000000     0.982200000000     0.883700000000    -0.301199   
O        O      0.970700000000     0.314990000000     0.976490000000    -0.301199   
O        O      0.890600000000     0.150720000000     0.039220000000    -0.301199   
O        O      0.151500000000     0.100310000000     0.935110000000    -0.301199   
O        O      0.373400000000     0.106240000000     0.898140000000    -0.301199   
O        O      0.692800000000     0.307290000000     0.747390000000    -0.301199   
O        O      0.553500000000     0.310790000000     0.868090000000    -0.301199   
O        O      0.487200000000     0.130010000000     0.715310000000    -0.301199   
O        O      0.496400000000     0.957800000000     0.637600000000    -0.301199   
O        O      0.751700000000     0.155000000000     0.612100000000    -0.301199   
O        O      0.709200000000     0.019930000000     0.500930000000    -0.301199   
O        O      0.412700000000     0.351160000000     0.693160000000    -0.301199   
O        O      0.381500000000     0.517800000000     0.616300000000    -0.301199   
O        O      0.470700000000     0.185010000000     0.523510000000    -0.301199   
O        O      0.390600000000     0.349280000000     0.460780000000    -0.301199   
O        O      0.651500000000     0.399690000000     0.564890000000    -0.301199   
O        O      0.873400000000     0.393760000000     0.601860000000    -0.301199   


