data_TIGDOD_original

_audit_creation_method RASPA-1.0
_audit_creation_date 2022-1-31
_audit_author_name 'Felipe Lopes de Oliveira <felipe.lopes.oliveira@ibm.com>'

_cell_length_a    8.8488
_cell_length_b    13.5042
_cell_length_c    21.5285
_cell_angle_alpha 90
_cell_angle_beta  90
_cell_angle_gamma 97.144
_cell_volume      2552.6

_symmetry_cell_setting          triclinic
_symmetry_space_group_name_Hall 'P 1'
_symmetry_space_group_name_H-M  'P 1'
_symmetry_Int_Tables_number     1

_symmetry_equiv_pos_as_xyz 'x,y,z'

loop_
_atom_site_label
_atom_site_type_symbol
_atom_site_fract_x
_atom_site_fract_y
_atom_site_fract_z
_atom_site_charge
Zn       Zn     0.000000000000     0.250000000000     0.147618000000     0.427386   
Zn       Zn     0.500000000000     0.250000000000     0.647618000000     0.427386   
Zn       Zn     0.000000000000     0.750000000000     0.852382000000     0.427386   
Zn       Zn     0.500000000000     0.750000000000     0.352382000000     0.427386   
H        H      0.321700000000     0.209600000000     0.150900000000     0.0657581  
H        H      0.821700000000     0.209600000000     0.650900000000     0.0657581  
H        H      0.678300000000     0.290400000000     0.150900000000     0.0657581  
H        H      0.178300000000     0.290400000000     0.650900000000     0.0657581  
H        H      0.678300000000     0.790400000000     0.849100000000     0.0657581  
H        H      0.178300000000     0.790400000000     0.349100000000     0.0657581  
H        H      0.321700000000     0.709600000000     0.849100000000     0.0657581  
H        H      0.821700000000     0.709600000000     0.349100000000     0.0657581  
H        H      0.485200000000     0.118400000000     0.098000000000     0.0657581  
H        H      0.985200000000     0.118400000000     0.598000000000     0.0657581  
H        H      0.514800000000     0.381600000000     0.098000000000     0.0657581  
H        H      0.014800000000     0.381600000000     0.598000000000     0.0657581  
H        H      0.514800000000     0.881600000000     0.902000000000     0.0657581  
H        H      0.014800000000     0.881600000000     0.402000000000     0.0657581  
H        H      0.485200000000     0.618400000000     0.902000000000     0.0657581  
H        H      0.985200000000     0.618400000000     0.402000000000     0.0657581  
H        H      0.155000000000     0.050400000000     0.968600000000     0.0657581  
H        H      0.655000000000     0.050400000000     0.468600000000     0.0657581  
H        H      0.845000000000     0.449600000000     0.968600000000     0.0657581  
H        H      0.345000000000     0.449600000000     0.468600000000     0.0657581  
H        H      0.845000000000     0.949600000000     0.031400000000     0.0657581  
H        H      0.345000000000     0.949600000000     0.531400000000     0.0657581  
H        H      0.155000000000     0.550400000000     0.031400000000     0.0657581  
H        H      0.655000000000     0.550400000000     0.531400000000     0.0657581  
H        H      0.996500000000     0.139200000000     0.027200000000     0.0657581  
H        H      0.496500000000     0.139200000000     0.527200000000     0.0657581  
H        H      0.003500000000     0.360800000000     0.027200000000     0.0657581  
H        H      0.503500000000     0.360800000000     0.527200000000     0.0657581  
H        H      0.003500000000     0.860800000000     0.972800000000     0.0657581  
H        H      0.503500000000     0.860800000000     0.472800000000     0.0657581  
H        H      0.996500000000     0.639200000000     0.972800000000     0.0657581  
H        H      0.496500000000     0.639200000000     0.472800000000     0.0657581  
H        H      0.390200000000     0.980900000000     0.954000000000     0.0657581  
H        H      0.890200000000     0.980900000000     0.454000000000     0.0657581  
H        H      0.609800000000     0.519100000000     0.954000000000     0.0657581  
H        H      0.109800000000     0.519100000000     0.454000000000     0.0657581  
H        H      0.609800000000     0.019100000000     0.046000000000     0.0657581  
H        H      0.109800000000     0.019100000000     0.546000000000     0.0657581  
H        H      0.390200000000     0.480900000000     0.046000000000     0.0657581  
H        H      0.890200000000     0.480900000000     0.546000000000     0.0657581  
H        H      0.667000000000     0.952600000000     0.201500000000     0.0657581  
H        H      0.167000000000     0.952600000000     0.701500000000     0.0657581  
H        H      0.333000000000     0.547400000000     0.201500000000     0.0657581  
H        H      0.833000000000     0.547400000000     0.701500000000     0.0657581  
H        H      0.333000000000     0.047400000000     0.798500000000     0.0657581  
H        H      0.833000000000     0.047400000000     0.298500000000     0.0657581  
H        H      0.667000000000     0.452600000000     0.798500000000     0.0657581  
H        H      0.167000000000     0.452600000000     0.298500000000     0.0657581  
C        C      0.286930000000     0.175390000000     0.114060000000     0.0152662  
C        C      0.786930000000     0.175390000000     0.614060000000     0.0152662  
C        C      0.713070000000     0.324610000000     0.114060000000     0.0152662  
C        C      0.213070000000     0.324610000000     0.614060000000     0.0152662  
C        C      0.713070000000     0.824610000000     0.885940000000     0.0152662  
C        C      0.213070000000     0.824610000000     0.385940000000     0.0152662  
C        C      0.286930000000     0.675390000000     0.885940000000     0.0152662  
C        C      0.786930000000     0.675390000000     0.385940000000     0.0152662  
C        C      0.385380000000     0.121570000000     0.082490000000     0.0152662  
C        C      0.885380000000     0.121570000000     0.582490000000     0.0152662  
C        C      0.614620000000     0.378430000000     0.082490000000     0.0152662  
C        C      0.114620000000     0.378430000000     0.582490000000     0.0152662  
C        C      0.614620000000     0.878430000000     0.917510000000     0.0152662  
C        C      0.114620000000     0.878430000000     0.417510000000     0.0152662  
C        C      0.385380000000     0.621570000000     0.917510000000     0.0152662  
C        C      0.885380000000     0.621570000000     0.417510000000     0.0152662  
C        C      0.337370000000     0.071500000000     0.027480000000     0.0152662  
C        C      0.837370000000     0.071500000000     0.527480000000     0.0152662  
C        C      0.662630000000     0.428500000000     0.027480000000     0.0152662  
C        C      0.162630000000     0.428500000000     0.527480000000     0.0152662  
C        C      0.662630000000     0.928500000000     0.972520000000     0.0152662  
C        C      0.162630000000     0.928500000000     0.472520000000     0.0152662  
C        C      0.337370000000     0.571500000000     0.972520000000     0.0152662  
C        C      0.837370000000     0.571500000000     0.472520000000     0.0152662  
C        C      0.190730000000     0.080830000000     0.006520000000     0.0152662  
C        C      0.690730000000     0.080830000000     0.506520000000     0.0152662  
C        C      0.809270000000     0.419170000000     0.006520000000     0.0152662  
C        C      0.309270000000     0.419170000000     0.506520000000     0.0152662  
C        C      0.809270000000     0.919170000000     0.993480000000     0.0152662  
C        C      0.309270000000     0.919170000000     0.493480000000     0.0152662  
C        C      0.190730000000     0.580830000000     0.993480000000     0.0152662  
C        C      0.690730000000     0.580830000000     0.493480000000     0.0152662  
C        C      0.097080000000     0.134890000000     0.041450000000     0.0152662  
C        C      0.597080000000     0.134890000000     0.541450000000     0.0152662  
C        C      0.902920000000     0.365110000000     0.041450000000     0.0152662  
C        C      0.402920000000     0.365110000000     0.541450000000     0.0152662  
C        C      0.902920000000     0.865110000000     0.958550000000     0.0152662  
C        C      0.402920000000     0.865110000000     0.458550000000     0.0152662  
C        C      0.097080000000     0.634890000000     0.958550000000     0.0152662  
C        C      0.597080000000     0.634890000000     0.458550000000     0.0152662  
C        C      0.431080000000     0.009420000000     0.991640000000     0.0152662  
C        C      0.931080000000     0.009420000000     0.491640000000     0.0152662  
C        C      0.568920000000     0.490580000000     0.991640000000     0.0152662  
C        C      0.068920000000     0.490580000000     0.491640000000     0.0152662  
C        C      0.568920000000     0.990580000000     0.008360000000     0.0152662  
C        C      0.068920000000     0.990580000000     0.508360000000     0.0152662  
C        C      0.431080000000     0.509420000000     0.008360000000     0.0152662  
C        C      0.931080000000     0.509420000000     0.508360000000     0.0152662  
C        C      0.810930000000     0.084160000000     0.179200000000     0.0152662  
C        C      0.310930000000     0.084160000000     0.679200000000     0.0152662  
C        C      0.189070000000     0.415840000000     0.179200000000     0.0152662  
C        C      0.689070000000     0.415840000000     0.679200000000     0.0152662  
C        C      0.189070000000     0.915840000000     0.820800000000     0.0152662  
C        C      0.689070000000     0.915840000000     0.320800000000     0.0152662  
C        C      0.810930000000     0.584160000000     0.820800000000     0.0152662  
C        C      0.310930000000     0.584160000000     0.320800000000     0.0152662  
C        C      0.737130000000     0.003100000000     0.220010000000     0.0152662  
C        C      0.237130000000     0.003100000000     0.720010000000     0.0152662  
C        C      0.262870000000     0.496900000000     0.220010000000     0.0152662  
C        C      0.762870000000     0.496900000000     0.720010000000     0.0152662  
C        C      0.262870000000     0.996900000000     0.779990000000     0.0152662  
C        C      0.762870000000     0.996900000000     0.279990000000     0.0152662  
C        C      0.737130000000     0.503100000000     0.779990000000     0.0152662  
C        C      0.237130000000     0.503100000000     0.279990000000     0.0152662  
N        N      0.143900000000     0.181360000000     0.094720000000    -0.171598   
N        N      0.643900000000     0.181360000000     0.594720000000    -0.171598   
N        N      0.856100000000     0.318640000000     0.094720000000    -0.171598   
N        N      0.356100000000     0.318640000000     0.594720000000    -0.171598   
N        N      0.856100000000     0.818640000000     0.905280000000    -0.171598   
N        N      0.356100000000     0.818640000000     0.405280000000    -0.171598   
N        N      0.143900000000     0.681360000000     0.905280000000    -0.171598   
N        N      0.643900000000     0.681360000000     0.405280000000    -0.171598   
O        O      0.895300000000     0.155210000000     0.206590000000    -0.279387   
O        O      0.395300000000     0.155210000000     0.706590000000    -0.279387   
O        O      0.104700000000     0.344790000000     0.206590000000    -0.279387   
O        O      0.604700000000     0.344790000000     0.706590000000    -0.279387   
O        O      0.104700000000     0.844790000000     0.793410000000    -0.279387   
O        O      0.604700000000     0.844790000000     0.293410000000    -0.279387   
O        O      0.895300000000     0.655210000000     0.793410000000    -0.279387   
O        O      0.395300000000     0.655210000000     0.293410000000    -0.279387   
O        O      0.789890000000     0.079030000000     0.122250000000    -0.279387   
O        O      0.289890000000     0.079030000000     0.622250000000    -0.279387   
O        O      0.210110000000     0.420970000000     0.122250000000    -0.279387   
O        O      0.710110000000     0.420970000000     0.622250000000    -0.279387   
O        O      0.210110000000     0.920970000000     0.877750000000    -0.279387   
O        O      0.710110000000     0.920970000000     0.377750000000    -0.279387   
O        O      0.789890000000     0.579030000000     0.877750000000    -0.279387   
O        O      0.289890000000     0.579030000000     0.377750000000    -0.279387   


