data_TONBII_original

_audit_creation_method RASPA-1.0
_audit_creation_date 2022-1-29
_audit_author_name 'Felipe Lopes de Oliveira <felipe.lopes.oliveira@ibm.com>'

_cell_length_a    4.7297
_cell_length_b    11.1836
_cell_length_c    11.9608
_cell_angle_alpha 117.872
_cell_angle_beta  92.553
_cell_angle_gamma 90
_cell_volume      558.563

_symmetry_cell_setting          triclinic
_symmetry_space_group_name_Hall 'P 1'
_symmetry_space_group_name_H-M  'P 1'
_symmetry_Int_Tables_number     1

_symmetry_equiv_pos_as_xyz 'x,y,z'

loop_
_atom_site_label
_atom_site_type_symbol
_atom_site_fract_x
_atom_site_fract_y
_atom_site_fract_z
_atom_site_charge
Fe       Fe     0.250000000000     0.417780000000     0.000000000000     0.835212   
Fe       Fe     0.750000000000     0.582220000000     0.000000000000     0.835212   
H        H      0.531700000000     0.004000000000     0.712600000000     0.0535589  
H        H      0.655200000000     0.830100000000     0.527800000000     0.0535589  
H        H      0.079800000000     0.256100000000     0.673000000000     0.0535589  
H        H      0.968300000000     0.291400000000     0.287400000000     0.0535589  
H        H      0.844800000000     0.302300000000     0.472200000000     0.0535589  
H        H      0.420200000000     0.583100000000     0.327000000000     0.0535589  
H        H      0.468300000000     0.996000000000     0.287400000000     0.0535589  
H        H      0.344800000000     0.169900000000     0.472200000000     0.0535589  
H        H      0.920200000000     0.743900000000     0.327000000000     0.0535589  
H        H      0.031700000000     0.708600000000     0.712600000000     0.0535589  
H        H      0.155200000000     0.697700000000     0.527800000000     0.0535589  
H        H      0.579800000000     0.416900000000     0.673000000000     0.0535589  
C        C      0.706600000000     0.266320000000     0.831640000000     0.0337673  
C        C      0.793900000000     0.149660000000     0.710720000000     0.0337673  
C        C      0.665600000000     0.019920000000     0.666840000000     0.0337673  
C        C      0.737000000000     0.915630000000     0.553860000000     0.0337673  
C        C      0.935800000000     0.934850000000     0.478100000000     0.0337673  
C        C      0.991500000000     0.171230000000     0.640460000000     0.0337673  
C        C      0.793400000000     0.434680000000     0.168360000000     0.0337673  
C        C      0.706100000000     0.438940000000     0.289280000000     0.0337673  
C        C      0.834400000000     0.353080000000     0.333160000000     0.0337673  
C        C      0.763000000000     0.361770000000     0.446140000000     0.0337673  
C        C      0.564200000000     0.456750000000     0.521900000000     0.0337673  
C        C      0.508500000000     0.530770000000     0.359540000000     0.0337673  
C        C      0.293400000000     0.733680000000     0.168360000000     0.0337673  
C        C      0.206100000000     0.850340000000     0.289280000000     0.0337673  
C        C      0.334400000000     0.980080000000     0.333160000000     0.0337673  
C        C      0.263000000000     0.084370000000     0.446140000000     0.0337673  
C        C      0.064200000000     0.065150000000     0.521900000000     0.0337673  
C        C      0.008500000000     0.828770000000     0.359540000000     0.0337673  
C        C      0.206600000000     0.565320000000     0.831640000000     0.0337673  
C        C      0.293900000000     0.561060000000     0.710720000000     0.0337673  
C        C      0.165600000000     0.646920000000     0.666840000000     0.0337673  
C        C      0.237000000000     0.638230000000     0.553860000000     0.0337673  
C        C      0.435800000000     0.543250000000     0.478100000000     0.0337673  
C        C      0.491500000000     0.469230000000     0.640460000000     0.0337673  
O        O      0.870000000000     0.371300000000     0.880720000000    -0.390443   
O        O      0.474700000000     0.256950000000     0.874300000000    -0.390443   
O        O      0.630000000000     0.490580000000     0.119280000000    -0.390443   
O        O      0.025300000000     0.382650000000     0.125700000000    -0.390443   
O        O      0.130000000000     0.628700000000     0.119280000000    -0.390443   
O        O      0.525300000000     0.743050000000     0.125700000000    -0.390443   
O        O      0.370000000000     0.509420000000     0.880720000000    -0.390443   
O        O      0.974700000000     0.617350000000     0.874300000000    -0.390443   


