data_TONQOD_original

_audit_creation_method RASPA-1.0
_audit_creation_date 2022-1-30
_audit_author_name 'Felipe Lopes de Oliveira <felipe.lopes.oliveira@ibm.com>'

_cell_length_a    9.2945
_cell_length_b    19.4305
_cell_length_c    19.4305
_cell_angle_alpha 67.7291
_cell_angle_beta  76.1623
_cell_angle_gamma 76.1624
_cell_volume      3109.7

_symmetry_cell_setting          triclinic
_symmetry_space_group_name_Hall 'P 1'
_symmetry_space_group_name_H-M  'P 1'
_symmetry_Int_Tables_number     1

_symmetry_equiv_pos_as_xyz 'x,y,z'

loop_
_atom_site_label
_atom_site_type_symbol
_atom_site_fract_x
_atom_site_fract_y
_atom_site_fract_z
_atom_site_charge
Zn       Zn     0.638760000000     0.514010000000     0.514010000000     0.448009   
Zn       Zn     0.166780000000     0.985990000000     0.985990000000     0.448009   
Zn       Zn     0.833220000000     0.014010000000     0.014010000000     0.448009   
Zn       Zn     0.361240000000     0.485990000000     0.485990000000     0.448009   
H        H      0.893100000000     0.551000000000     0.286400000000     0.0542444  
H        H      0.013700000000     0.548800000000     0.167400000000     0.0542444  
H        H      0.647800000000     0.486500000000     0.141500000000     0.0542444  
H        H      0.527500000000     0.492800000000     0.259000000000     0.0542444  
H        H      0.230500000000     0.949000000000     0.213600000000     0.0542444  
H        H      0.229900000000     0.951200000000     0.332600000000     0.0542444  
H        H      0.775800000000     0.013500000000     0.358500000000     0.0542444  
H        H      0.779300000000     0.007200000000     0.241000000000     0.0542444  
H        H      0.769500000000     0.786400000000     0.051000000000     0.0542444  
H        H      0.770100000000     0.667400000000     0.048800000000     0.0542444  
H        H      0.224200000000     0.641500000000     0.986500000000     0.0542444  
H        H      0.220700000000     0.759000000000     0.992800000000     0.0542444  
H        H      0.106900000000     0.713600000000     0.449000000000     0.0542444  
H        H      0.986300000000     0.832600000000     0.451200000000     0.0542444  
H        H      0.352200000000     0.858500000000     0.513500000000     0.0542444  
H        H      0.472500000000     0.741000000000     0.507200000000     0.0542444  
H        H      0.106900000000     0.449000000000     0.713600000000     0.0542444  
H        H      0.986300000000     0.451200000000     0.832600000000     0.0542444  
H        H      0.352200000000     0.513500000000     0.858500000000     0.0542444  
H        H      0.472500000000     0.507200000000     0.741000000000     0.0542444  
H        H      0.769500000000     0.051000000000     0.786400000000     0.0542444  
H        H      0.770100000000     0.048800000000     0.667400000000     0.0542444  
H        H      0.224200000000     0.986500000000     0.641500000000     0.0542444  
H        H      0.220700000000     0.992800000000     0.759000000000     0.0542444  
H        H      0.230500000000     0.213600000000     0.949000000000     0.0542444  
H        H      0.229900000000     0.332600000000     0.951200000000     0.0542444  
H        H      0.775800000000     0.358500000000     0.013500000000     0.0542444  
H        H      0.779300000000     0.241000000000     0.007200000000     0.0542444  
H        H      0.893100000000     0.286400000000     0.551000000000     0.0542444  
H        H      0.013700000000     0.167400000000     0.548800000000     0.0542444  
H        H      0.647800000000     0.141500000000     0.486500000000     0.0542444  
H        H      0.527500000000     0.259000000000     0.492800000000     0.0542444  
H        H      0.865100000000     0.409900000000     0.090100000000     0.0542444  
H        H      0.865100000000     0.090100000000     0.409900000000     0.0542444  
H        H      0.134900000000     0.590100000000     0.909900000000     0.0542444  
H        H      0.134900000000     0.909900000000     0.590100000000     0.0542444  
C        C      0.624330000000     0.521970000000     0.362370000000     0.0144947  
C        C      0.697570000000     0.522230000000     0.284430000000     0.0144947  
C        C      0.842940000000     0.538590000000     0.256530000000     0.0144947  
C        C      0.915150000000     0.536850000000     0.186250000000     0.0144947  
C        C      0.840030000000     0.517170000000     0.142170000000     0.0144947  
C        C      0.697870000000     0.500330000000     0.170330000000     0.0144947  
C        C      0.626790000000     0.503610000000     0.240610000000     0.0144947  
C        C      0.921850000000     0.510550000000     0.068150000000     0.0144947  
C        C      0.008670000000     0.978030000000     0.137630000000     0.0144947  
C        C      0.004230000000     0.977770000000     0.215570000000     0.0144947  
C        C      0.138060000000     0.961410000000     0.243470000000     0.0144947  
C        C      0.138250000000     0.963150000000     0.313750000000     0.0144947  
C        C      0.999370000000     0.982830000000     0.357830000000     0.0144947  
C        C      0.868530000000     0.999670000000     0.329670000000     0.0144947  
C        C      0.871010000000     0.996390000000     0.259390000000     0.0144947  
C        C      0.000550000000     0.989450000000     0.431850000000     0.0144947  
C        C      0.991330000000     0.862370000000     0.021970000000     0.0144947  
C        C      0.995770000000     0.784430000000     0.022230000000     0.0144947  
C        C      0.861940000000     0.756530000000     0.038590000000     0.0144947  
C        C      0.861750000000     0.686250000000     0.036850000000     0.0144947  
C        C      0.000630000000     0.642170000000     0.017170000000     0.0144947  
C        C      0.131470000000     0.670330000000     0.000330000000     0.0144947  
C        C      0.128990000000     0.740610000000     0.003610000000     0.0144947  
C        C      0.999450000000     0.568150000000     0.010550000000     0.0144947  
C        C      0.375670000000     0.637630000000     0.478030000000     0.0144947  
C        C      0.302430000000     0.715570000000     0.477770000000     0.0144947  
C        C      0.157060000000     0.743470000000     0.461410000000     0.0144947  
C        C      0.084850000000     0.813750000000     0.463150000000     0.0144947  
C        C      0.159970000000     0.857830000000     0.482830000000     0.0144947  
C        C      0.302130000000     0.829670000000     0.499670000000     0.0144947  
C        C      0.373210000000     0.759390000000     0.496390000000     0.0144947  
C        C      0.078150000000     0.931850000000     0.489450000000     0.0144947  
C        C      0.375670000000     0.478030000000     0.637630000000     0.0144947  
C        C      0.302430000000     0.477770000000     0.715570000000     0.0144947  
C        C      0.157060000000     0.461410000000     0.743470000000     0.0144947  
C        C      0.084850000000     0.463150000000     0.813750000000     0.0144947  
C        C      0.159970000000     0.482830000000     0.857830000000     0.0144947  
C        C      0.302130000000     0.499670000000     0.829670000000     0.0144947  
C        C      0.373210000000     0.496390000000     0.759390000000     0.0144947  
C        C      0.078150000000     0.489450000000     0.931850000000     0.0144947  
C        C      0.991330000000     0.021970000000     0.862370000000     0.0144947  
C        C      0.995770000000     0.022230000000     0.784430000000     0.0144947  
C        C      0.861940000000     0.038590000000     0.756530000000     0.0144947  
C        C      0.861750000000     0.036850000000     0.686250000000     0.0144947  
C        C      0.000630000000     0.017170000000     0.642170000000     0.0144947  
C        C      0.131470000000     0.000330000000     0.670330000000     0.0144947  
C        C      0.128990000000     0.003610000000     0.740610000000     0.0144947  
C        C      0.999450000000     0.010550000000     0.568150000000     0.0144947  
C        C      0.008670000000     0.137630000000     0.978030000000     0.0144947  
C        C      0.004230000000     0.215570000000     0.977770000000     0.0144947  
C        C      0.138060000000     0.243470000000     0.961410000000     0.0144947  
C        C      0.138250000000     0.313750000000     0.963150000000     0.0144947  
C        C      0.999370000000     0.357830000000     0.982830000000     0.0144947  
C        C      0.868530000000     0.329670000000     0.999670000000     0.0144947  
C        C      0.871010000000     0.259390000000     0.996390000000     0.0144947  
C        C      0.000550000000     0.431850000000     0.989450000000     0.0144947  
C        C      0.624330000000     0.362370000000     0.521970000000     0.0144947  
C        C      0.697570000000     0.284430000000     0.522230000000     0.0144947  
C        C      0.842940000000     0.256530000000     0.538590000000     0.0144947  
C        C      0.915150000000     0.186250000000     0.536850000000     0.0144947  
C        C      0.840030000000     0.142170000000     0.517170000000     0.0144947  
C        C      0.697870000000     0.170330000000     0.500330000000     0.0144947  
C        C      0.626790000000     0.240610000000     0.503610000000     0.0144947  
C        C      0.921850000000     0.068150000000     0.510550000000     0.0144947  
C        C      0.922200000000     0.446300000000     0.053700000000     0.0144947  
C        C      0.922200000000     0.053700000000     0.446300000000     0.0144947  
C        C      0.077800000000     0.553700000000     0.946300000000     0.0144947  
C        C      0.077800000000     0.946300000000     0.553700000000     0.0144947  
O        O      0.702070000000     0.530390000000     0.401670000000    -0.295655   
O        O      0.490690000000     0.511080000000     0.381340000000    -0.295655   
O        O      0.134130000000     0.969610000000     0.098330000000    -0.295655   
O        O      0.883110000000     0.988920000000     0.118660000000    -0.295655   
O        O      0.865870000000     0.901670000000     0.030390000000    -0.295655   
O        O      0.116890000000     0.881340000000     0.011080000000    -0.295655   
O        O      0.297930000000     0.598330000000     0.469610000000    -0.295655   
O        O      0.509310000000     0.618660000000     0.488920000000    -0.295655   
O        O      0.297930000000     0.469610000000     0.598330000000    -0.295655   
O        O      0.509310000000     0.488920000000     0.618660000000    -0.295655   
O        O      0.865870000000     0.030390000000     0.901670000000    -0.295655   
O        O      0.116890000000     0.011080000000     0.881340000000    -0.295655   
O        O      0.134130000000     0.098330000000     0.969610000000    -0.295655   
O        O      0.883110000000     0.118660000000     0.988920000000    -0.295655   
O        O      0.702070000000     0.401670000000     0.530390000000    -0.295655   
O        O      0.490690000000     0.381340000000     0.511080000000    -0.295655   


