data_UDANAQ_original

_audit_creation_method RASPA-1.0
_audit_creation_date 2022-1-31
_audit_author_name 'Felipe Lopes de Oliveira <felipe.lopes.oliveira@ibm.com>'

_cell_length_a    9.6779
_cell_length_b    14.6341
_cell_length_c    14.6341
_cell_angle_alpha 83.7229
_cell_angle_beta  70.6911
_cell_angle_gamma 70.691
_cell_volume      1845.98

_symmetry_cell_setting          triclinic
_symmetry_space_group_name_Hall 'P 1'
_symmetry_space_group_name_H-M  'P 1'
_symmetry_Int_Tables_number     1

_symmetry_equiv_pos_as_xyz 'x,y,z'

loop_
_atom_site_label
_atom_site_type_symbol
_atom_site_fract_x
_atom_site_fract_y
_atom_site_fract_z
_atom_site_charge
Zn       Zn     0.847550000000     0.000000000000     0.000000000000     0.463497   
Zn       Zn     0.152450000000     0.000000000000     0.000000000000     0.463497   
H        H      0.574200000000     0.221200000000     0.221200000000     0.0499482  
H        H      0.456200000000     0.338200000000     0.338200000000     0.0499482  
H        H      0.016600000000     0.778800000000     0.778800000000     0.0499482  
H        H      0.132600000000     0.661800000000     0.661800000000     0.0499482  
H        H      0.795400000000     0.778800000000     0.221200000000     0.0499482  
H        H      0.794400000000     0.661800000000     0.338200000000     0.0499482  
H        H      0.795400000000     0.221200000000     0.778800000000     0.0499482  
H        H      0.794400000000     0.338200000000     0.661800000000     0.0499482  
H        H      0.425800000000     0.778800000000     0.778800000000     0.0499482  
H        H      0.543800000000     0.661800000000     0.661800000000     0.0499482  
H        H      0.983400000000     0.221200000000     0.221200000000     0.0499482  
H        H      0.867400000000     0.338200000000     0.338200000000     0.0499482  
H        H      0.204600000000     0.778800000000     0.221200000000     0.0499482  
H        H      0.205600000000     0.661800000000     0.338200000000     0.0499482  
H        H      0.204600000000     0.221200000000     0.778800000000     0.0499482  
H        H      0.205600000000     0.338200000000     0.661800000000     0.0499482  
H        H      0.561800000000     0.665600000000     0.210800000000     0.0499482  
H        H      0.618700000000     0.509100000000     0.253500000000     0.0499482  
H        H      0.438200000000     0.334400000000     0.789200000000     0.0499482  
H        H      0.381300000000     0.490900000000     0.746500000000     0.0499482  
H        H      0.772600000000     0.789200000000     0.665600000000     0.0499482  
H        H      0.872200000000     0.746500000000     0.509100000000     0.0499482  
H        H      0.227400000000     0.210800000000     0.334400000000     0.0499482  
H        H      0.127800000000     0.253500000000     0.490900000000     0.0499482  
H        H      0.438200000000     0.789200000000     0.334400000000     0.0499482  
H        H      0.381300000000     0.746500000000     0.490900000000     0.0499482  
H        H      0.561800000000     0.210800000000     0.665600000000     0.0499482  
H        H      0.618700000000     0.253500000000     0.509100000000     0.0499482  
H        H      0.227400000000     0.334400000000     0.210800000000     0.0499482  
H        H      0.127800000000     0.490900000000     0.253500000000     0.0499482  
H        H      0.772600000000     0.665600000000     0.789200000000     0.0499482  
H        H      0.872200000000     0.509100000000     0.746500000000     0.0499482  
H        H      0.688800000000     0.854400000000     0.000000000000     0.0499482  
H        H      0.543200000000     0.145600000000     0.000000000000     0.0499482  
H        H      0.688800000000     0.000000000000     0.854400000000     0.0499482  
H        H      0.543200000000     0.000000000000     0.145600000000     0.0499482  
H        H      0.311200000000     0.000000000000     0.145600000000     0.0499482  
H        H      0.456800000000     0.000000000000     0.854400000000     0.0499482  
H        H      0.311200000000     0.145600000000     0.000000000000     0.0499482  
H        H      0.456800000000     0.854400000000     0.000000000000     0.0499482  
H        H      0.607000000000     0.892000000000     0.108000000000     0.0499482  
H        H      0.607000000000     0.108000000000     0.892000000000     0.0499482  
H        H      0.715000000000     0.892000000000     0.892000000000     0.0499482  
H        H      0.499000000000     0.108000000000     0.108000000000     0.0499482  
H        H      0.393000000000     0.892000000000     0.108000000000     0.0499482  
H        H      0.393000000000     0.108000000000     0.892000000000     0.0499482  
H        H      0.285000000000     0.108000000000     0.108000000000     0.0499482  
H        H      0.501000000000     0.892000000000     0.892000000000     0.0499482  
C        C      0.606200000000     0.908000000000     0.039800000000    -0.00874519 
C        C      0.554000000000     0.092000000000     0.960200000000    -0.00874519 
C        C      0.646000000000     0.960200000000     0.908000000000    -0.00874519 
C        C      0.514200000000     0.039800000000     0.092000000000    -0.00874519 
C        C      0.393800000000     0.960200000000     0.092000000000    -0.00874519 
C        C      0.446000000000     0.039800000000     0.908000000000    -0.00874519 
C        C      0.354000000000     0.092000000000     0.039800000000    -0.00874519 
C        C      0.485800000000     0.908000000000     0.960200000000    -0.00874519 
C        C      0.393800000000     0.092000000000     0.960200000000    -0.00874519 
C        C      0.446000000000     0.908000000000     0.039800000000    -0.00874519 
C        C      0.354000000000     0.039800000000     0.092000000000    -0.00874519 
C        C      0.485800000000     0.960200000000     0.908000000000    -0.00874519 
C        C      0.606200000000     0.039800000000     0.908000000000    -0.00874519 
C        C      0.554000000000     0.960200000000     0.092000000000    -0.00874519 
C        C      0.646000000000     0.908000000000     0.960200000000    -0.00874519 
C        C      0.514200000000     0.092000000000     0.039800000000    -0.00874519 
C        C      0.634100000000     0.244800000000     0.244800000000    -0.00874519 
C        C      0.563300000000     0.314900000000     0.314900000000    -0.00874519 
C        C      0.123700000000     0.755200000000     0.755200000000    -0.00874519 
C        C      0.193100000000     0.685100000000     0.685100000000    -0.00874519 
C        C      0.878900000000     0.755200000000     0.244800000000    -0.00874519 
C        C      0.878200000000     0.685100000000     0.314900000000    -0.00874519 
C        C      0.878900000000     0.244800000000     0.755200000000    -0.00874519 
C        C      0.878200000000     0.314900000000     0.685100000000    -0.00874519 
C        C      0.365900000000     0.755200000000     0.755200000000    -0.00874519 
C        C      0.436700000000     0.685100000000     0.685100000000    -0.00874519 
C        C      0.876300000000     0.244800000000     0.244800000000    -0.00874519 
C        C      0.806900000000     0.314900000000     0.314900000000    -0.00874519 
C        C      0.121100000000     0.755200000000     0.244800000000    -0.00874519 
C        C      0.121800000000     0.685100000000     0.314900000000    -0.00874519 
C        C      0.121100000000     0.244800000000     0.755200000000    -0.00874519 
C        C      0.121800000000     0.314900000000     0.685100000000    -0.00874519 
C        C      0.571700000000     0.428300000000     0.428300000000    -0.00874519 
C        C      0.791400000000     0.208600000000     0.208600000000    -0.00874519 
C        C      0.648900000000     0.351100000000     0.351100000000    -0.00874519 
C        C      0.868600000000     0.131400000000     0.131400000000    -0.00874519 
C        C      0.428300000000     0.571700000000     0.571700000000    -0.00874519 
C        C      0.208600000000     0.791400000000     0.791400000000    -0.00874519 
C        C      0.351100000000     0.648900000000     0.648900000000    -0.00874519 
C        C      0.131400000000     0.868600000000     0.868600000000    -0.00874519 
C        C      0.000000000000     0.571700000000     0.428300000000    -0.00874519 
C        C      0.000000000000     0.791400000000     0.208600000000    -0.00874519 
C        C      0.000000000000     0.648900000000     0.351100000000    -0.00874519 
C        C      0.000000000000     0.868600000000     0.131400000000    -0.00874519 
C        C      0.000000000000     0.428300000000     0.571700000000    -0.00874519 
C        C      0.000000000000     0.208600000000     0.791400000000    -0.00874519 
C        C      0.000000000000     0.351100000000     0.648900000000    -0.00874519 
C        C      0.000000000000     0.131400000000     0.868600000000    -0.00874519 
C        C      0.537800000000     0.648400000000     0.276000000000    -0.00874519 
C        C      0.571000000000     0.556300000000     0.301700000000    -0.00874519 
C        C      0.536600000000     0.526700000000     0.400100000000    -0.00874519 
C        C      0.462200000000     0.351600000000     0.724000000000    -0.00874519 
C        C      0.429000000000     0.443700000000     0.698300000000    -0.00874519 
C        C      0.463400000000     0.473300000000     0.599900000000    -0.00874519 
C        C      0.813800000000     0.724000000000     0.648400000000    -0.00874519 
C        C      0.872700000000     0.698300000000     0.556300000000    -0.00874519 
C        C      0.936700000000     0.599900000000     0.526700000000    -0.00874519 
C        C      0.186200000000     0.276000000000     0.351600000000    -0.00874519 
C        C      0.127300000000     0.301700000000     0.443700000000    -0.00874519 
C        C      0.063300000000     0.400100000000     0.473300000000    -0.00874519 
C        C      0.462200000000     0.724000000000     0.351600000000    -0.00874519 
C        C      0.429000000000     0.698300000000     0.443700000000    -0.00874519 
C        C      0.463400000000     0.599900000000     0.473300000000    -0.00874519 
C        C      0.537800000000     0.276000000000     0.648400000000    -0.00874519 
C        C      0.571000000000     0.301700000000     0.556300000000    -0.00874519 
C        C      0.536600000000     0.400100000000     0.526700000000    -0.00874519 
C        C      0.186200000000     0.351600000000     0.276000000000    -0.00874519 
C        C      0.127300000000     0.443700000000     0.301700000000    -0.00874519 
C        C      0.063300000000     0.473300000000     0.400100000000    -0.00874519 
C        C      0.813800000000     0.648400000000     0.724000000000    -0.00874519 
C        C      0.872700000000     0.556300000000     0.698300000000    -0.00874519 
C        C      0.936700000000     0.526700000000     0.599900000000    -0.00874519 
N        N      0.634200000000     0.000000000000     0.000000000000    -0.109916   
N        N      0.365800000000     0.000000000000     0.000000000000    -0.109916   
O        O      0.782900000000     0.102200000000     0.102200000000    -0.309377   
O        O      0.987300000000     0.897800000000     0.897800000000    -0.309377   
O        O      0.885100000000     0.897800000000     0.102200000000    -0.309377   
O        O      0.885100000000     0.102200000000     0.897800000000    -0.309377   
O        O      0.217100000000     0.897800000000     0.897800000000    -0.309377   
O        O      0.012700000000     0.102200000000     0.102200000000    -0.309377   
O        O      0.114900000000     0.897800000000     0.102200000000    -0.309377   
O        O      0.114900000000     0.102200000000     0.897800000000    -0.309377   


