data_UGUQOC_original

_audit_creation_method RASPA-1.0
_audit_creation_date 2022-1-29
_audit_author_name 'Felipe Lopes de Oliveira <felipe.lopes.oliveira@ibm.com>'

_cell_length_a    9.5866
_cell_length_b    9.5866
_cell_length_c    11.072
_cell_angle_alpha 91.1871
_cell_angle_beta  91.1871
_cell_angle_gamma 105.878
_cell_volume      978.147

_symmetry_cell_setting          triclinic
_symmetry_space_group_name_Hall 'P 1'
_symmetry_space_group_name_H-M  'P 1'
_symmetry_Int_Tables_number     1

_symmetry_equiv_pos_as_xyz 'x,y,z'

loop_
_atom_site_label
_atom_site_type_symbol
_atom_site_fract_x
_atom_site_fract_y
_atom_site_fract_z
_atom_site_charge
Zn       Zn     0.994950000000     0.005050000000     0.750000000000     0.486896   
Zn       Zn     0.005050000000     0.994950000000     0.250000000000     0.486896   
H        H      0.446000000000     0.950000000000     0.788000000000     0.134398   
H        H      0.050000000000     0.554000000000     0.712000000000     0.134398   
H        H      0.554000000000     0.050000000000     0.212000000000     0.134398   
H        H      0.950000000000     0.446000000000     0.288000000000     0.134398   
H        H      0.856000000000     0.596000000000     0.980000000000     0.134398   
H        H      0.779000000000     0.739000000000     0.956000000000     0.134398   
H        H      0.919000000000     0.745000000000     0.954000000000     0.134398   
H        H      0.878000000000     0.732000000000     0.088000000000     0.134398   
H        H      0.404000000000     0.144000000000     0.520000000000     0.134398   
H        H      0.261000000000     0.221000000000     0.544000000000     0.134398   
H        H      0.255000000000     0.081000000000     0.546000000000     0.134398   
H        H      0.268000000000     0.122000000000     0.412000000000     0.134398   
H        H      0.144000000000     0.404000000000     0.020000000000     0.134398   
H        H      0.221000000000     0.261000000000     0.044000000000     0.134398   
H        H      0.081000000000     0.255000000000     0.046000000000     0.134398   
H        H      0.122000000000     0.268000000000     0.912000000000     0.134398   
H        H      0.596000000000     0.856000000000     0.480000000000     0.134398   
H        H      0.739000000000     0.779000000000     0.456000000000     0.134398   
H        H      0.745000000000     0.919000000000     0.454000000000     0.134398   
H        H      0.732000000000     0.878000000000     0.588000000000     0.134398   
C        C      0.207520000000     0.947980000000     0.899660000000     0.108272   
C        C      0.357860000000     0.978620000000     0.955650000000     0.108272   
C        C      0.469140000000     0.978360000000     0.877890000000     0.108272   
C        C      0.388550000000     0.000970000000     0.079620000000     0.108272   
C        C      0.274170000000     0.005010000000     0.169210000000     0.108272   
C        C      0.052020000000     0.792480000000     0.600340000000     0.108272   
C        C      0.021380000000     0.642140000000     0.544350000000     0.108272   
C        C      0.021640000000     0.530860000000     0.622110000000     0.108272   
C        C      0.999030000000     0.611450000000     0.420380000000     0.108272   
C        C      0.994990000000     0.725830000000     0.330790000000     0.108272   
C        C      0.792480000000     0.052020000000     0.100340000000     0.108272   
C        C      0.642140000000     0.021380000000     0.044350000000     0.108272   
C        C      0.530860000000     0.021640000000     0.122110000000     0.108272   
C        C      0.611450000000     0.999030000000     0.920380000000     0.108272   
C        C      0.725830000000     0.994990000000     0.830790000000     0.108272   
C        C      0.947980000000     0.207520000000     0.399660000000     0.108272   
C        C      0.978620000000     0.357860000000     0.455650000000     0.108272   
C        C      0.978360000000     0.469140000000     0.377890000000     0.108272   
C        C      0.000970000000     0.388550000000     0.579620000000     0.108272   
C        C      0.005010000000     0.274170000000     0.669210000000     0.108272   
N        N      0.849000000000     0.696800000000     0.998000000000    -0.366765   
N        N      0.303200000000     0.151000000000     0.502000000000    -0.366765   
N        N      0.151000000000     0.303200000000     0.002000000000    -0.366765   
N        N      0.696800000000     0.849000000000     0.498000000000    -0.366765   
O        O      0.178440000000     0.054160000000     0.846940000000    -0.272508   
O        O      0.125940000000     0.823540000000     0.900310000000    -0.272508   
O        O      0.298510000000     0.991890000000     0.277950000000    -0.272508   
O        O      0.156390000000     0.023170000000     0.127550000000    -0.272508   
O        O      0.945840000000     0.821560000000     0.653060000000    -0.272508   
O        O      0.176460000000     0.874060000000     0.599690000000    -0.272508   
O        O      0.008110000000     0.701490000000     0.222050000000    -0.272508   
O        O      0.976830000000     0.843610000000     0.372450000000    -0.272508   
O        O      0.821560000000     0.945840000000     0.153060000000    -0.272508   
O        O      0.874060000000     0.176460000000     0.099690000000    -0.272508   
O        O      0.701490000000     0.008110000000     0.722050000000    -0.272508   
O        O      0.843610000000     0.976830000000     0.872450000000    -0.272508   
O        O      0.054160000000     0.178440000000     0.346940000000    -0.272508   
O        O      0.823540000000     0.125940000000     0.400310000000    -0.272508   
O        O      0.991890000000     0.298510000000     0.777950000000    -0.272508   
O        O      0.023170000000     0.156390000000     0.627550000000    -0.272508   


