data_UKUBUY_original

_audit_creation_method RASPA-1.0
_audit_creation_date 2022-1-28
_audit_author_name 'Felipe Lopes de Oliveira <felipe.lopes.oliveira@ibm.com>'

_cell_length_a    12.147
_cell_length_b    12.147
_cell_length_c    24.744
_cell_angle_alpha 90
_cell_angle_beta  90
_cell_angle_gamma 90
_cell_volume      3650.97

_symmetry_cell_setting          triclinic
_symmetry_space_group_name_Hall 'P 1'
_symmetry_space_group_name_H-M  'P 1'
_symmetry_Int_Tables_number     1

_symmetry_equiv_pos_as_xyz 'x,y,z'

loop_
_atom_site_label
_atom_site_type_symbol
_atom_site_fract_x
_atom_site_fract_y
_atom_site_fract_z
_atom_site_charge
Fe       Fe     0.750000000000     0.750000000000     0.921120000000     0.595484   
Fe       Fe     0.250000000000     0.250000000000     0.421120000000     0.595484   
Fe       Fe     0.250000000000     0.250000000000     0.078880000000     0.595484   
Fe       Fe     0.750000000000     0.750000000000     0.578880000000     0.595484   
H        H      0.584400000000     0.569000000000     0.876300000000     0.0509294  
H        H      0.567100000000     0.431000000000     0.814600000000     0.0509294  
H        H      0.860400000000     0.517400000000     0.754500000000     0.0509294  
H        H      0.871300000000     0.649400000000     0.820300000000     0.0509294  
H        H      0.802600000000     0.411000000000     0.683200000000     0.0509294  
H        H      0.854900000000     0.329600000000     0.725600000000     0.0509294  
H        H      0.818800000000     0.159000000000     0.609500000000     0.0509294  
H        H      0.900800000000     0.174400000000     0.658100000000     0.0509294  
H        H      0.089600000000     0.111800000000     0.494800000000     0.0509294  
H        H      0.963500000000     0.121100000000     0.563400000000     0.0509294  
H        H      0.007400000000     0.444300000000     0.564600000000     0.0509294  
H        H      0.130100000000     0.424400000000     0.494900000000     0.0509294  
H        H      0.530700000000     0.874700000000     0.917100000000     0.0509294  
H        H      0.915600000000     0.931000000000     0.876300000000     0.0509294  
H        H      0.932900000000     0.069000000000     0.814600000000     0.0509294  
H        H      0.639600000000     0.982600000000     0.754500000000     0.0509294  
H        H      0.628700000000     0.850600000000     0.820300000000     0.0509294  
H        H      0.697400000000     0.089000000000     0.683200000000     0.0509294  
H        H      0.645100000000     0.170400000000     0.725600000000     0.0509294  
H        H      0.681200000000     0.341000000000     0.609500000000     0.0509294  
H        H      0.599200000000     0.325600000000     0.658100000000     0.0509294  
H        H      0.410400000000     0.388200000000     0.494800000000     0.0509294  
H        H      0.536500000000     0.378900000000     0.563400000000     0.0509294  
H        H      0.492600000000     0.055700000000     0.564600000000     0.0509294  
H        H      0.369900000000     0.075600000000     0.494900000000     0.0509294  
H        H      0.969300000000     0.625300000000     0.917100000000     0.0509294  
H        H      0.431000000000     0.084400000000     0.376300000000     0.0509294  
H        H      0.569000000000     0.067100000000     0.314600000000     0.0509294  
H        H      0.482600000000     0.360400000000     0.254500000000     0.0509294  
H        H      0.350600000000     0.371300000000     0.320300000000     0.0509294  
H        H      0.589000000000     0.302600000000     0.183200000000     0.0509294  
H        H      0.670400000000     0.354900000000     0.225600000000     0.0509294  
H        H      0.841000000000     0.318800000000     0.109500000000     0.0509294  
H        H      0.825600000000     0.400800000000     0.158100000000     0.0509294  
H        H      0.888200000000     0.589600000000     0.994800000000     0.0509294  
H        H      0.878900000000     0.463500000000     0.063400000000     0.0509294  
H        H      0.555700000000     0.507400000000     0.064600000000     0.0509294  
H        H      0.575600000000     0.630100000000     0.994900000000     0.0509294  
H        H      0.125300000000     0.030700000000     0.417100000000     0.0509294  
H        H      0.069000000000     0.415600000000     0.376300000000     0.0509294  
H        H      0.931000000000     0.432900000000     0.314600000000     0.0509294  
H        H      0.017400000000     0.139600000000     0.254500000000     0.0509294  
H        H      0.149400000000     0.128700000000     0.320300000000     0.0509294  
H        H      0.911000000000     0.197400000000     0.183200000000     0.0509294  
H        H      0.829600000000     0.145100000000     0.225600000000     0.0509294  
H        H      0.659000000000     0.181200000000     0.109500000000     0.0509294  
H        H      0.674400000000     0.099200000000     0.158100000000     0.0509294  
H        H      0.611800000000     0.910400000000     0.994800000000     0.0509294  
H        H      0.621100000000     0.036500000000     0.063400000000     0.0509294  
H        H      0.944300000000     0.992600000000     0.064600000000     0.0509294  
H        H      0.924400000000     0.869900000000     0.994900000000     0.0509294  
H        H      0.374700000000     0.469300000000     0.417100000000     0.0509294  
H        H      0.415600000000     0.431000000000     0.123700000000     0.0509294  
H        H      0.432900000000     0.569000000000     0.185400000000     0.0509294  
H        H      0.139600000000     0.482600000000     0.245500000000     0.0509294  
H        H      0.128700000000     0.350600000000     0.179700000000     0.0509294  
H        H      0.197400000000     0.589000000000     0.316800000000     0.0509294  
H        H      0.145100000000     0.670400000000     0.274400000000     0.0509294  
H        H      0.181200000000     0.841000000000     0.390500000000     0.0509294  
H        H      0.099200000000     0.825600000000     0.341900000000     0.0509294  
H        H      0.910400000000     0.888200000000     0.505200000000     0.0509294  
H        H      0.036500000000     0.878900000000     0.436600000000     0.0509294  
H        H      0.992600000000     0.555700000000     0.435400000000     0.0509294  
H        H      0.869900000000     0.575600000000     0.505100000000     0.0509294  
H        H      0.469300000000     0.125300000000     0.082900000000     0.0509294  
H        H      0.084400000000     0.069000000000     0.123700000000     0.0509294  
H        H      0.067100000000     0.931000000000     0.185400000000     0.0509294  
H        H      0.360400000000     0.017400000000     0.245500000000     0.0509294  
H        H      0.371300000000     0.149400000000     0.179700000000     0.0509294  
H        H      0.302600000000     0.911000000000     0.316800000000     0.0509294  
H        H      0.354900000000     0.829600000000     0.274400000000     0.0509294  
H        H      0.318800000000     0.659000000000     0.390500000000     0.0509294  
H        H      0.400800000000     0.674400000000     0.341900000000     0.0509294  
H        H      0.589600000000     0.611800000000     0.505200000000     0.0509294  
H        H      0.463500000000     0.621100000000     0.436600000000     0.0509294  
H        H      0.507400000000     0.944300000000     0.435400000000     0.0509294  
H        H      0.630100000000     0.924400000000     0.505100000000     0.0509294  
H        H      0.030700000000     0.374700000000     0.082900000000     0.0509294  
H        H      0.569000000000     0.915600000000     0.623700000000     0.0509294  
H        H      0.431000000000     0.932900000000     0.685400000000     0.0509294  
H        H      0.517400000000     0.639600000000     0.745500000000     0.0509294  
H        H      0.649400000000     0.628700000000     0.679700000000     0.0509294  
H        H      0.411000000000     0.697400000000     0.816800000000     0.0509294  
H        H      0.329600000000     0.645100000000     0.774400000000     0.0509294  
H        H      0.159000000000     0.681200000000     0.890500000000     0.0509294  
H        H      0.174400000000     0.599200000000     0.841900000000     0.0509294  
H        H      0.111800000000     0.410400000000     0.005200000000     0.0509294  
H        H      0.121100000000     0.536500000000     0.936600000000     0.0509294  
H        H      0.444300000000     0.492600000000     0.935400000000     0.0509294  
H        H      0.424400000000     0.369900000000     0.005100000000     0.0509294  
H        H      0.874700000000     0.969300000000     0.582900000000     0.0509294  
H        H      0.931000000000     0.584400000000     0.623700000000     0.0509294  
H        H      0.069000000000     0.567100000000     0.685400000000     0.0509294  
H        H      0.982600000000     0.860400000000     0.745500000000     0.0509294  
H        H      0.850600000000     0.871300000000     0.679700000000     0.0509294  
H        H      0.089000000000     0.802600000000     0.816800000000     0.0509294  
H        H      0.170400000000     0.854900000000     0.774400000000     0.0509294  
H        H      0.341000000000     0.818800000000     0.890500000000     0.0509294  
H        H      0.325600000000     0.900800000000     0.841900000000     0.0509294  
H        H      0.388200000000     0.089600000000     0.005200000000     0.0509294  
H        H      0.378900000000     0.963500000000     0.936600000000     0.0509294  
H        H      0.055700000000     0.007400000000     0.935400000000     0.0509294  
H        H      0.075600000000     0.130100000000     0.005100000000     0.0509294  
H        H      0.625300000000     0.530700000000     0.582900000000     0.0509294  
C        C      0.641900000000     0.557100000000     0.852120000000     0.0132826  
C        C      0.630300000000     0.474300000000     0.815140000000     0.0132826  
C        C      0.714800000000     0.456000000000     0.778300000000     0.0132826  
C        C      0.804000000000     0.524600000000     0.779720000000     0.0132826  
C        C      0.809200000000     0.604800000000     0.819200000000     0.0132826  
C        C      0.788100000000     0.347800000000     0.706120000000     0.0132826  
C        C      0.845600000000     0.211000000000     0.636220000000     0.0132826  
C        C      0.071800000000     0.180800000000     0.508560000000     0.0132826  
C        C      0.995000000000     0.185300000000     0.550000000000     0.0132826  
C        C      0.966400000000     0.285500000000     0.570770000000     0.0132826  
C        C      0.020700000000     0.374700000000     0.550410000000     0.0132826  
C        C      0.095800000000     0.361800000000     0.508590000000     0.0132826  
C        C      0.858100000000     0.942900000000     0.852120000000     0.0132826  
C        C      0.869700000000     0.025700000000     0.815140000000     0.0132826  
C        C      0.785200000000     0.044000000000     0.778300000000     0.0132826  
C        C      0.696000000000     0.975400000000     0.779720000000     0.0132826  
C        C      0.690800000000     0.895200000000     0.819200000000     0.0132826  
C        C      0.711900000000     0.152200000000     0.706120000000     0.0132826  
C        C      0.654400000000     0.289000000000     0.636220000000     0.0132826  
C        C      0.428200000000     0.319200000000     0.508560000000     0.0132826  
C        C      0.505000000000     0.314700000000     0.550000000000     0.0132826  
C        C      0.533600000000     0.214500000000     0.570770000000     0.0132826  
C        C      0.479300000000     0.125300000000     0.550410000000     0.0132826  
C        C      0.404200000000     0.138200000000     0.508590000000     0.0132826  
C        C      0.442900000000     0.141900000000     0.352120000000     0.0132826  
C        C      0.525700000000     0.130300000000     0.315140000000     0.0132826  
C        C      0.544000000000     0.214800000000     0.278300000000     0.0132826  
C        C      0.475400000000     0.304000000000     0.279720000000     0.0132826  
C        C      0.395200000000     0.309200000000     0.319200000000     0.0132826  
C        C      0.652200000000     0.288100000000     0.206120000000     0.0132826  
C        C      0.789000000000     0.345600000000     0.136220000000     0.0132826  
C        C      0.819200000000     0.571800000000     0.008560000000     0.0132826  
C        C      0.814700000000     0.495000000000     0.050000000000     0.0132826  
C        C      0.714500000000     0.466400000000     0.070770000000     0.0132826  
C        C      0.625300000000     0.520700000000     0.050410000000     0.0132826  
C        C      0.638200000000     0.595800000000     0.008590000000     0.0132826  
C        C      0.057100000000     0.358100000000     0.352120000000     0.0132826  
C        C      0.974300000000     0.369700000000     0.315140000000     0.0132826  
C        C      0.956000000000     0.285200000000     0.278300000000     0.0132826  
C        C      0.024600000000     0.196000000000     0.279720000000     0.0132826  
C        C      0.104800000000     0.190800000000     0.319200000000     0.0132826  
C        C      0.847800000000     0.211900000000     0.206120000000     0.0132826  
C        C      0.711000000000     0.154400000000     0.136220000000     0.0132826  
C        C      0.680800000000     0.928200000000     0.008560000000     0.0132826  
C        C      0.685300000000     0.005000000000     0.050000000000     0.0132826  
C        C      0.785500000000     0.033600000000     0.070770000000     0.0132826  
C        C      0.874700000000     0.979300000000     0.050410000000     0.0132826  
C        C      0.861800000000     0.904200000000     0.008590000000     0.0132826  
C        C      0.750000000000     0.250000000000     0.672200000000     0.0132826  
C        C      0.750000000000     0.250000000000     0.172200000000     0.0132826  
C        C      0.358100000000     0.442900000000     0.147880000000     0.0132826  
C        C      0.369700000000     0.525700000000     0.184860000000     0.0132826  
C        C      0.285200000000     0.544000000000     0.221700000000     0.0132826  
C        C      0.196000000000     0.475400000000     0.220280000000     0.0132826  
C        C      0.190800000000     0.395200000000     0.180800000000     0.0132826  
C        C      0.211900000000     0.652200000000     0.293880000000     0.0132826  
C        C      0.154400000000     0.789000000000     0.363780000000     0.0132826  
C        C      0.928200000000     0.819200000000     0.491440000000     0.0132826  
C        C      0.005000000000     0.814700000000     0.450000000000     0.0132826  
C        C      0.033600000000     0.714500000000     0.429230000000     0.0132826  
C        C      0.979300000000     0.625300000000     0.449590000000     0.0132826  
C        C      0.904200000000     0.638200000000     0.491410000000     0.0132826  
C        C      0.141900000000     0.057100000000     0.147880000000     0.0132826  
C        C      0.130300000000     0.974300000000     0.184860000000     0.0132826  
C        C      0.214800000000     0.956000000000     0.221700000000     0.0132826  
C        C      0.304000000000     0.024600000000     0.220280000000     0.0132826  
C        C      0.309200000000     0.104800000000     0.180800000000     0.0132826  
C        C      0.288100000000     0.847800000000     0.293880000000     0.0132826  
C        C      0.345600000000     0.711000000000     0.363780000000     0.0132826  
C        C      0.571800000000     0.680800000000     0.491440000000     0.0132826  
C        C      0.495000000000     0.685300000000     0.450000000000     0.0132826  
C        C      0.466400000000     0.785500000000     0.429230000000     0.0132826  
C        C      0.520700000000     0.874700000000     0.449590000000     0.0132826  
C        C      0.595800000000     0.861800000000     0.491410000000     0.0132826  
C        C      0.557100000000     0.858100000000     0.647880000000     0.0132826  
C        C      0.474300000000     0.869700000000     0.684860000000     0.0132826  
C        C      0.456000000000     0.785200000000     0.721700000000     0.0132826  
C        C      0.524600000000     0.696000000000     0.720280000000     0.0132826  
C        C      0.604800000000     0.690800000000     0.680800000000     0.0132826  
C        C      0.347800000000     0.711900000000     0.793880000000     0.0132826  
C        C      0.211000000000     0.654400000000     0.863780000000     0.0132826  
C        C      0.180800000000     0.428200000000     0.991440000000     0.0132826  
C        C      0.185300000000     0.505000000000     0.950000000000     0.0132826  
C        C      0.285500000000     0.533600000000     0.929230000000     0.0132826  
C        C      0.374700000000     0.479300000000     0.949590000000     0.0132826  
C        C      0.361800000000     0.404200000000     0.991410000000     0.0132826  
C        C      0.942900000000     0.641900000000     0.647880000000     0.0132826  
C        C      0.025700000000     0.630300000000     0.684860000000     0.0132826  
C        C      0.044000000000     0.714800000000     0.721700000000     0.0132826  
C        C      0.975400000000     0.804000000000     0.720280000000     0.0132826  
C        C      0.895200000000     0.809200000000     0.680800000000     0.0132826  
C        C      0.152200000000     0.788100000000     0.793880000000     0.0132826  
C        C      0.289000000000     0.845600000000     0.863780000000     0.0132826  
C        C      0.319200000000     0.071800000000     0.991440000000     0.0132826  
C        C      0.314700000000     0.995000000000     0.950000000000     0.0132826  
C        C      0.214500000000     0.966400000000     0.929230000000     0.0132826  
C        C      0.125300000000     0.020700000000     0.949590000000     0.0132826  
C        C      0.138200000000     0.095800000000     0.991410000000     0.0132826  
C        C      0.250000000000     0.750000000000     0.327800000000     0.0132826  
C        C      0.250000000000     0.750000000000     0.827800000000     0.0132826  
S        S      0.550280000000     0.777960000000     0.919360000000    -0.152213   
S        S      0.949720000000     0.722040000000     0.919360000000    -0.152213   
S        S      0.222040000000     0.050280000000     0.419360000000    -0.152213   
S        S      0.277960000000     0.449720000000     0.419360000000    -0.152213   
S        S      0.449720000000     0.222040000000     0.080640000000    -0.152213   
S        S      0.050280000000     0.277960000000     0.080640000000    -0.152213   
S        S      0.777960000000     0.949720000000     0.580640000000    -0.152213   
S        S      0.722040000000     0.550280000000     0.580640000000    -0.152213   
N        N      0.730400000000     0.622200000000     0.855900000000    -0.226042   
N        N      0.121200000000     0.266100000000     0.487330000000    -0.226042   
N        N      0.769600000000     0.877800000000     0.855900000000    -0.226042   
N        N      0.378800000000     0.233900000000     0.487330000000    -0.226042   
N        N      0.377800000000     0.230400000000     0.355900000000    -0.226042   
N        N      0.733900000000     0.621200000000     0.987330000000    -0.226042   
N        N      0.122200000000     0.269600000000     0.355900000000    -0.226042   
N        N      0.766100000000     0.878800000000     0.987330000000    -0.226042   
N        N      0.269600000000     0.377800000000     0.144100000000    -0.226042   
N        N      0.878800000000     0.733900000000     0.512670000000    -0.226042   
N        N      0.230400000000     0.122200000000     0.144100000000    -0.226042   
N        N      0.621200000000     0.766100000000     0.512670000000    -0.226042   
N        N      0.622200000000     0.769600000000     0.644100000000    -0.226042   
N        N      0.266100000000     0.378800000000     0.012670000000    -0.226042   
N        N      0.877800000000     0.730400000000     0.644100000000    -0.226042   
N        N      0.233900000000     0.121200000000     0.012670000000    -0.226042   
O        O      0.892400000000     0.303400000000     0.610090000000    -0.26078    
O        O      0.700400000000     0.371500000000     0.743100000000    -0.26078    
O        O      0.607600000000     0.196600000000     0.610090000000    -0.26078    
O        O      0.799600000000     0.128500000000     0.743100000000    -0.26078    
O        O      0.696600000000     0.392400000000     0.110090000000    -0.26078    
O        O      0.628500000000     0.200400000000     0.243100000000    -0.26078    
O        O      0.803400000000     0.107600000000     0.110090000000    -0.26078    
O        O      0.871500000000     0.299600000000     0.243100000000    -0.26078    
O        O      0.107600000000     0.696600000000     0.389910000000    -0.26078    
O        O      0.299600000000     0.628500000000     0.256900000000    -0.26078    
O        O      0.392400000000     0.803400000000     0.389910000000    -0.26078    
O        O      0.200400000000     0.871500000000     0.256900000000    -0.26078    
O        O      0.303400000000     0.607600000000     0.889910000000    -0.26078    
O        O      0.371500000000     0.799600000000     0.756900000000    -0.26078    
O        O      0.196600000000     0.892400000000     0.889910000000    -0.26078    
O        O      0.128500000000     0.700400000000     0.756900000000    -0.26078    


