data_UMEXUF_original

_audit_creation_method RASPA-1.0
_audit_creation_date 2022-1-28
_audit_author_name 'Felipe Lopes de Oliveira <felipe.lopes.oliveira@ibm.com>'

_cell_length_a    7.4087
_cell_length_b    14.5347
_cell_length_c    16.4236
_cell_angle_alpha 90
_cell_angle_beta  90
_cell_angle_gamma 94.993
_cell_volume      1761.84

_symmetry_cell_setting          triclinic
_symmetry_space_group_name_Hall 'P 1'
_symmetry_space_group_name_H-M  'P 1'
_symmetry_Int_Tables_number     1

_symmetry_equiv_pos_as_xyz 'x,y,z'

loop_
_atom_site_label
_atom_site_type_symbol
_atom_site_fract_x
_atom_site_fract_y
_atom_site_fract_z
_atom_site_charge
Zn       Zn     0.221600000000     0.680870000000     0.481920000000     0.479745   
Zn       Zn     0.191300000000     0.479100000000     0.372770000000     0.479745   
Zn       Zn     0.278400000000     0.819130000000     0.981920000000     0.479745   
Zn       Zn     0.308700000000     0.020900000000     0.872770000000     0.479745   
Zn       Zn     0.778400000000     0.319130000000     0.518080000000     0.479745   
Zn       Zn     0.808700000000     0.520900000000     0.627230000000     0.479745   
Zn       Zn     0.721600000000     0.180870000000     0.018080000000     0.479745   
Zn       Zn     0.691300000000     0.979100000000     0.127230000000     0.479745   
Zn       Zn     0.500000000000     0.500000000000     0.500000000000     0.479745   
Zn       Zn     0.000000000000     0.000000000000     0.000000000000     0.479745   
H        H      0.836200000000     0.482000000000     0.476000000000     0.103133   
H        H      0.428800000000     0.674200000000     0.205400000000     0.103133   
H        H      0.048600000000     0.729200000000     0.224400000000     0.103133   
H        H      0.663800000000     0.018000000000     0.976000000000     0.103133   
H        H      0.071200000000     0.825800000000     0.705400000000     0.103133   
H        H      0.451400000000     0.770800000000     0.724400000000     0.103133   
H        H      0.163800000000     0.518000000000     0.524000000000     0.103133   
H        H      0.571200000000     0.325800000000     0.794600000000     0.103133   
H        H      0.951400000000     0.270800000000     0.775600000000     0.103133   
H        H      0.336200000000     0.982000000000     0.024000000000     0.103133   
H        H      0.928800000000     0.174200000000     0.294600000000     0.103133   
H        H      0.548600000000     0.229200000000     0.275600000000     0.103133   
C        C      0.830700000000     0.664400000000     0.280300000000     0.115539   
C        C      0.643100000000     0.647600000000     0.274700000000     0.115539   
C        C      0.553500000000     0.687200000000     0.210500000000     0.115539   
C        C      0.643900000000     0.744800000000     0.154500000000     0.115539   
C        C      0.832700000000     0.759900000000     0.159700000000     0.115539   
C        C      0.923000000000     0.719500000000     0.221600000000     0.115539   
C        C      0.945900000000     0.625900000000     0.345700000000     0.115539   
C        C      0.534400000000     0.592000000000     0.336300000000     0.115539   
C        C      0.528100000000     0.786300000000     0.092100000000     0.115539   
C        C      0.945600000000     0.819000000000     0.099300000000     0.115539   
C        C      0.669300000000     0.835600000000     0.780300000000     0.115539   
C        C      0.856900000000     0.852400000000     0.774700000000     0.115539   
C        C      0.946500000000     0.812800000000     0.710500000000     0.115539   
C        C      0.856100000000     0.755200000000     0.654500000000     0.115539   
C        C      0.667300000000     0.740100000000     0.659700000000     0.115539   
C        C      0.577000000000     0.780500000000     0.721600000000     0.115539   
C        C      0.554100000000     0.874100000000     0.845700000000     0.115539   
C        C      0.965600000000     0.908000000000     0.836300000000     0.115539   
C        C      0.971900000000     0.713700000000     0.592100000000     0.115539   
C        C      0.554400000000     0.681000000000     0.599300000000     0.115539   
C        C      0.169300000000     0.335600000000     0.719700000000     0.115539   
C        C      0.356900000000     0.352400000000     0.725300000000     0.115539   
C        C      0.446500000000     0.312800000000     0.789500000000     0.115539   
C        C      0.356100000000     0.255200000000     0.845500000000     0.115539   
C        C      0.167300000000     0.240100000000     0.840300000000     0.115539   
C        C      0.077000000000     0.280500000000     0.778400000000     0.115539   
C        C      0.054100000000     0.374100000000     0.654300000000     0.115539   
C        C      0.465600000000     0.408000000000     0.663700000000     0.115539   
C        C      0.471900000000     0.213700000000     0.907900000000     0.115539   
C        C      0.054400000000     0.181000000000     0.900700000000     0.115539   
C        C      0.330700000000     0.164400000000     0.219700000000     0.115539   
C        C      0.143100000000     0.147600000000     0.225300000000     0.115539   
C        C      0.053500000000     0.187200000000     0.289500000000     0.115539   
C        C      0.143900000000     0.244800000000     0.345500000000     0.115539   
C        C      0.332700000000     0.259900000000     0.340300000000     0.115539   
C        C      0.423000000000     0.219500000000     0.278400000000     0.115539   
C        C      0.445900000000     0.125900000000     0.154300000000     0.115539   
C        C      0.034400000000     0.092000000000     0.163700000000     0.115539   
C        C      0.028100000000     0.286300000000     0.407900000000     0.115539   
C        C      0.445600000000     0.319000000000     0.400700000000     0.115539   
O        O      0.970000000000     0.542600000000     0.341000000000    -0.296017   
O        O      0.017400000000     0.683300000000     0.394700000000    -0.296017   
O        O      0.377800000000     0.560300000000     0.313800000000    -0.296017   
O        O      0.603800000000     0.580900000000     0.404100000000    -0.296017   
O        O      0.523700000000     0.871600000000     0.087000000000    -0.296017   
O        O      0.427200000000     0.732900000000     0.049600000000    -0.296017   
O        O      0.078300000000     0.783100000000     0.070500000000    -0.296017   
O        O      0.901400000000     0.897300000000     0.084300000000    -0.296017   
O        O      0.754000000000     0.453500000000     0.517400000000    -0.296017   
O        O      0.530000000000     0.957400000000     0.841000000000    -0.296017   
O        O      0.482600000000     0.816700000000     0.894700000000    -0.296017   
O        O      0.122200000000     0.939700000000     0.813800000000    -0.296017   
O        O      0.896200000000     0.919100000000     0.904100000000    -0.296017   
O        O      0.976300000000     0.628400000000     0.587000000000    -0.296017   
O        O      0.072800000000     0.767100000000     0.549600000000    -0.296017   
O        O      0.421700000000     0.716900000000     0.570500000000    -0.296017   
O        O      0.598600000000     0.602700000000     0.584300000000    -0.296017   
O        O      0.746000000000     0.046500000000     0.017400000000    -0.296017   
O        O      0.030000000000     0.457400000000     0.659000000000    -0.296017   
O        O      0.982600000000     0.316700000000     0.605300000000    -0.296017   
O        O      0.622200000000     0.439700000000     0.686200000000    -0.296017   
O        O      0.396200000000     0.419100000000     0.595900000000    -0.296017   
O        O      0.476300000000     0.128400000000     0.913000000000    -0.296017   
O        O      0.572800000000     0.267100000000     0.950400000000    -0.296017   
O        O      0.921700000000     0.216900000000     0.929500000000    -0.296017   
O        O      0.098600000000     0.102700000000     0.915700000000    -0.296017   
O        O      0.246000000000     0.546500000000     0.482600000000    -0.296017   
O        O      0.470000000000     0.042600000000     0.159000000000    -0.296017   
O        O      0.517400000000     0.183300000000     0.105300000000    -0.296017   
O        O      0.877800000000     0.060300000000     0.186200000000    -0.296017   
O        O      0.103800000000     0.080900000000     0.095900000000    -0.296017   
O        O      0.023700000000     0.371600000000     0.413000000000    -0.296017   
O        O      0.927200000000     0.232900000000     0.450400000000    -0.296017   
O        O      0.578300000000     0.283100000000     0.429500000000    -0.296017   
O        O      0.401400000000     0.397300000000     0.415700000000    -0.296017   
O        O      0.254000000000     0.953500000000     0.982600000000    -0.296017   


