data_UVARUF_original

_audit_creation_method RASPA-1.0
_audit_creation_date 2022-1-31
_audit_author_name 'Felipe Lopes de Oliveira <felipe.lopes.oliveira@ibm.com>'

_cell_length_a    8.715
_cell_length_b    12.934
_cell_length_c    14.0605
_cell_angle_alpha 62.6167
_cell_angle_beta  83.686
_cell_angle_gamma 76.1659
_cell_volume      1366.49

_symmetry_cell_setting          triclinic
_symmetry_space_group_name_Hall 'P 1'
_symmetry_space_group_name_H-M  'P 1'
_symmetry_Int_Tables_number     1

_symmetry_equiv_pos_as_xyz 'x,y,z'

loop_
_atom_site_label
_atom_site_type_symbol
_atom_site_fract_x
_atom_site_fract_y
_atom_site_fract_z
_atom_site_charge
Zn       Zn     0.367570000000     0.741150000000     0.822460000000     0.431075   
Zn       Zn     0.867570000000     0.563610000000     0.177540000000     0.431075   
H        H      0.093000000000     0.096300000000     0.468400000000     0.0592434  
H        H      0.850100000000     0.200400000000     0.392200000000     0.0592434  
H        H      0.643800000000     0.020400000000     0.664800000000     0.0592434  
H        H      0.878500000000     0.919900000000     0.743200000000     0.0592434  
H        H      0.475700000000     0.162300000000     0.515800000000     0.0592434  
H        H      0.622800000000     0.316400000000     0.344000000000     0.0592434  
H        H      0.248300000000     0.261400000000     0.459000000000     0.0592434  
H        H      0.001500000000     0.373300000000     0.382800000000     0.0592434  
H        H      0.208700000000     0.566000000000     0.125800000000     0.0592434  
H        H      0.452400000000     0.473700000000     0.195800000000     0.0592434  
H        H      0.239800000000     0.435400000000     0.778600000000     0.0592434  
H        H      0.149700000000     0.261300000000     0.840400000000     0.0592434  
H        H      0.145000000000     0.220400000000     0.138800000000     0.0592434  
H        H      0.245700000000     0.392000000000     0.077400000000     0.0592434  
H        H      0.051000000000     0.082000000000     0.106200000000     0.0592434  
H        H      0.082600000000     0.094400000000     0.905000000000     0.0592434  
H        H      0.057100000000     0.925500000000     0.889000000000     0.0592434  
H        H      0.967500000000     0.748900000000     0.954400000000     0.0592434  
H        H      0.858300000000     0.759100000000     0.229200000000     0.0592434  
H        H      0.935500000000     0.930500000000     0.168200000000     0.0592434  
H        H      0.593000000000     0.564700000000     0.531600000000     0.0592434  
H        H      0.350100000000     0.592600000000     0.607800000000     0.0592434  
H        H      0.143800000000     0.685200000000     0.335200000000     0.0592434  
H        H      0.378500000000     0.663100000000     0.256800000000     0.0592434  
H        H      0.975700000000     0.678100000000     0.484200000000     0.0592434  
H        H      0.122800000000     0.660400000000     0.656000000000     0.0592434  
H        H      0.748300000000     0.720400000000     0.541000000000     0.0592434  
H        H      0.501500000000     0.756100000000     0.617200000000     0.0592434  
H        H      0.708700000000     0.691800000000     0.874200000000     0.0592434  
H        H      0.952400000000     0.669500000000     0.804200000000     0.0592434  
H        H      0.739800000000     0.214000000000     0.221400000000     0.0592434  
H        H      0.649700000000     0.101700000000     0.159600000000     0.0592434  
H        H      0.645000000000     0.359200000000     0.861200000000     0.0592434  
H        H      0.745700000000     0.469400000000     0.922600000000     0.0592434  
H        H      0.551000000000     0.188200000000     0.893800000000     0.0592434  
H        H      0.582600000000     0.999400000000     0.095000000000     0.0592434  
H        H      0.557100000000     0.814500000000     0.111000000000     0.0592434  
H        H      0.467500000000     0.703300000000     0.045600000000     0.0592434  
H        H      0.358300000000     0.988300000000     0.770800000000     0.0592434  
H        H      0.435500000000     0.098700000000     0.831800000000     0.0592434  
C        C      0.165000000000     0.920500000000     0.663200000000    -0.00415052 
C        C      0.016800000000     0.993100000000     0.614800000000    -0.00415052 
C        C      0.002400000000     0.080200000000     0.509200000000    -0.00415052 
C        C      0.856400000000     0.143300000000     0.463600000000    -0.00415052 
C        C      0.719800000000     0.123300000000     0.521800000000    -0.00415052 
C        C      0.734900000000     0.037200000000     0.624800000000    -0.00415052 
C        C      0.875000000000     0.975600000000     0.671600000000    -0.00415052 
C        C      0.562700000000     0.190200000000     0.476800000000    -0.00415052 
C        C      0.535900000000     0.288600000000     0.383800000000    -0.00415052 
C        C      0.376800000000     0.356300000000     0.339800000000    -0.00415052 
C        C      0.242600000000     0.326600000000     0.391600000000    -0.00415052 
C        C      0.093000000000     0.393400000000     0.344800000000    -0.00415052 
C        C      0.215700000000     0.506400000000     0.196200000000    -0.00415052 
C        C      0.363600000000     0.450600000000     0.235800000000    -0.00415052 
C        C      0.301700000000     0.542100000000     0.878800000000    -0.00415052 
C        C      0.243700000000     0.432200000000     0.924600000000    -0.00415052 
C        C      0.219800000000     0.392600000000     0.851000000000    -0.00415052 
C        C      0.165700000000     0.288400000000     0.888600000000    -0.00415052 
C        C      0.135200000000     0.223800000000     0.995400000000    -0.00415052 
C        C      0.164000000000     0.263100000000     0.066200000000    -0.00415052 
C        C      0.222200000000     0.367800000000     0.028800000000    -0.00415052 
C        C      0.078000000000     0.116400000000     0.034200000000    -0.00415052 
C        C      0.058800000000     0.059700000000     0.977600000000    -0.00415052 
C        C      0.004700000000     0.950100000000     0.020600000000    -0.00415052 
C        C      0.016400000000     0.893100000000     0.958000000000    -0.00415052 
C        C      0.966000000000     0.784100000000     0.999400000000    -0.00415052 
C        C      0.900800000000     0.790600000000     0.160600000000    -0.00415052 
C        C      0.944900000000     0.894000000000     0.123600000000    -0.00415052 
C        C      0.665000000000     0.583700000000     0.336800000000    -0.00415052 
C        C      0.516800000000     0.607900000000     0.385200000000    -0.00415052 
C        C      0.502400000000     0.589400000000     0.490800000000    -0.00415052 
C        C      0.356400000000     0.606900000000     0.536400000000    -0.00415052 
C        C      0.219800000000     0.645100000000     0.478200000000    -0.00415052 
C        C      0.234900000000     0.662000000000     0.375200000000    -0.00415052 
C        C      0.375000000000     0.647200000000     0.328400000000    -0.00415052 
C        C      0.062700000000     0.667000000000     0.523200000000    -0.00415052 
C        C      0.035900000000     0.672400000000     0.616200000000    -0.00415052 
C        C      0.876800000000     0.696100000000     0.660200000000    -0.00415052 
C        C      0.742600000000     0.718200000000     0.608400000000    -0.00415052 
C        C      0.593000000000     0.738200000000     0.655200000000    -0.00415052 
C        C      0.715700000000     0.702600000000     0.803800000000    -0.00415052 
C        C      0.863600000000     0.686400000000     0.764200000000    -0.00415052 
C        C      0.801700000000     0.420900000000     0.121200000000    -0.00415052 
C        C      0.743700000000     0.356800000000     0.075400000000    -0.00415052 
C        C      0.719800000000     0.243600000000     0.149000000000    -0.00415052 
C        C      0.665700000000     0.177000000000     0.111400000000    -0.00415052 
C        C      0.635200000000     0.219200000000     0.004600000000    -0.00415052 
C        C      0.664000000000     0.329300000000     0.933800000000    -0.00415052 
C        C      0.722200000000     0.396600000000     0.971200000000    -0.00415052 
C        C      0.578000000000     0.150600000000     0.965800000000    -0.00415052 
C        C      0.558800000000     0.037300000000     0.022400000000    -0.00415052 
C        C      0.504700000000     0.970700000000     0.979400000000    -0.00415052 
C        C      0.516400000000     0.851100000000     0.042000000000    -0.00415052 
C        C      0.466000000000     0.783500000000     0.000600000000    -0.00415052 
C        C      0.400800000000     0.951200000000     0.839400000000    -0.00415052 
C        C      0.444900000000     0.017600000000     0.876400000000    -0.00415052 
N        N      0.081400000000     0.486400000000     0.245200000000    -0.176551   
N        N      0.915400000000     0.728800000000     0.102200000000    -0.176551   
N        N      0.581400000000     0.731600000000     0.754800000000    -0.176551   
N        N      0.415400000000     0.831000000000     0.897800000000    -0.176551   
O        O      0.163100000000     0.843000000000     0.760200000000    -0.286656   
O        O      0.288600000000     0.942200000000     0.612000000000    -0.286656   
O        O      0.316500000000     0.590000000000     0.942800000000    -0.286656   
O        O      0.330700000000     0.599200000000     0.783000000000    -0.286656   
O        O      0.663100000000     0.603200000000     0.239800000000    -0.286656   
O        O      0.788600000000     0.554200000000     0.388000000000    -0.286656   
O        O      0.816500000000     0.532800000000     0.057200000000    -0.286656   
O        O      0.830700000000     0.382200000000     0.217000000000    -0.286656   


