data_UVEXAV_original

_audit_creation_method RASPA-1.0
_audit_creation_date 2022-1-30
_audit_author_name 'Felipe Lopes de Oliveira <felipe.lopes.oliveira@ibm.com>'

_cell_length_a    7.2335
_cell_length_b    7.6273
_cell_length_c    11.2437
_cell_angle_alpha 107.444
_cell_angle_beta  106.267
_cell_angle_gamma 97.0373
_cell_volume      553.489

_symmetry_cell_setting          triclinic
_symmetry_space_group_name_Hall 'P 1'
_symmetry_space_group_name_H-M  'P 1'
_symmetry_Int_Tables_number     1

_symmetry_equiv_pos_as_xyz 'x,y,z'

loop_
_atom_site_label
_atom_site_type_symbol
_atom_site_fract_x
_atom_site_fract_y
_atom_site_fract_z
_atom_site_charge
Ga       Ga     0.705270000000     0.705270000000     0.410540000000     4.47412    
Ga       Ga     0.294730000000     0.294730000000     0.589460000000     4.47412    
Ga       Ga     0.500000000000     0.000000000000     0.500000000000     4.47412    
Ga       Ga     0.000000000000     0.500000000000     0.500000000000     4.47412    
H        H      0.344240000000     0.660500000000     0.351480000000     0.466079   
H        H      0.664000000000     0.495000000000     0.522000000000     0.466079   
H        H      0.007240000000     0.690980000000     0.351480000000     0.466079   
H        H      0.858000000000     0.027000000000     0.522000000000     0.466079   
H        H      0.655760000000     0.339500000000     0.648520000000     0.466079   
H        H      0.336000000000     0.505000000000     0.478000000000     0.466079   
H        H      0.992760000000     0.309020000000     0.648520000000     0.466079   
H        H      0.142000000000     0.973000000000     0.478000000000     0.466079   
H        H      0.549000000000     0.298000000000     0.000000000000     0.466079   
H        H      0.451000000000     0.702000000000     0.000000000000     0.466079   
C        C      0.674740000000     0.318440000000     0.250880000000     0.237226   
C        C      0.574370000000     0.157170000000     0.123340000000     0.237226   
C        C      0.576140000000     0.932440000000     0.250880000000     0.237226   
C        C      0.548970000000     0.966170000000     0.123340000000     0.237226   
C        C      0.325260000000     0.681560000000     0.749120000000     0.237226   
C        C      0.425630000000     0.842830000000     0.876660000000     0.237226   
C        C      0.423860000000     0.067560000000     0.749120000000     0.237226   
C        C      0.451030000000     0.033830000000     0.876660000000     0.237226   
C        C      0.526100000000     0.180000000000     0.000000000000     0.237226   
C        C      0.473900000000     0.820000000000     0.000000000000     0.237226   
O        O      0.444470000000     0.725830000000     0.419880000000    -1.5581     
O        O      0.768860000000     0.579210000000     0.536140000000    -1.5581     
O        O      0.594300000000     0.457840000000     0.262560000000    -1.5581     
O        O      0.833040000000     0.302710000000     0.330440000000    -1.5581     
O        O      0.975410000000     0.694050000000     0.419880000000    -1.5581     
O        O      0.767280000000     0.956930000000     0.536140000000    -1.5581     
O        O      0.668260000000     0.804720000000     0.262560000000    -1.5581     
O        O      0.497400000000     0.027730000000     0.330440000000    -1.5581     
O        O      0.555530000000     0.274170000000     0.580120000000    -1.5581     
O        O      0.231140000000     0.420790000000     0.463860000000    -1.5581     
O        O      0.405700000000     0.542160000000     0.737440000000    -1.5581     
O        O      0.166960000000     0.697290000000     0.669560000000    -1.5581     
O        O      0.024590000000     0.305950000000     0.580120000000    -1.5581     
O        O      0.232720000000     0.043070000000     0.463860000000    -1.5581     
O        O      0.331740000000     0.195280000000     0.737440000000    -1.5581     
O        O      0.502600000000     0.972270000000     0.669560000000    -1.5581     


