data_UVUPOR_original

_audit_creation_method RASPA-1.0
_audit_creation_date 2022-1-31
_audit_author_name 'Felipe Lopes de Oliveira <felipe.lopes.oliveira@ibm.com>'

_cell_length_a    15.224
_cell_length_b    15.259
_cell_length_c    18.059
_cell_angle_alpha 91.84
_cell_angle_beta  96.69
_cell_angle_gamma 98.28
_cell_volume      4118.06

_symmetry_cell_setting          triclinic
_symmetry_space_group_name_Hall 'P 1'
_symmetry_space_group_name_H-M  'P 1'
_symmetry_Int_Tables_number     1

_symmetry_equiv_pos_as_xyz 'x,y,z'

loop_
_atom_site_label
_atom_site_type_symbol
_atom_site_fract_x
_atom_site_fract_y
_atom_site_fract_z
_atom_site_charge
Zn       Zn     0.011090000000     0.005530000000     0.082250000000     0.469855   
Zn       Zn     0.988910000000     0.994470000000     0.917750000000     0.469855   
Zn       Zn     0.773140000000     0.672750000000     0.756270000000     0.469855   
Zn       Zn     0.750790000000     0.662570000000     0.591860000000     0.469855   
Zn       Zn     0.226860000000     0.327250000000     0.243730000000     0.469855   
Zn       Zn     0.249210000000     0.337430000000     0.408140000000     0.469855   
H        H      0.012500000000     0.288200000000     0.109500000000     0.0553813  
H        H      0.014200000000     0.438600000000     0.111200000000     0.0553813  
H        H      0.985900000000     0.427200000000     0.887000000000     0.0553813  
H        H      0.986800000000     0.278200000000     0.886400000000     0.0553813  
H        H      0.310500000000     0.018000000000     0.118900000000     0.0553813  
H        H      0.453200000000     0.999000000000     0.111100000000     0.0553813  
H        H      0.417800000000     0.024200000000     0.894900000000     0.0553813  
H        H      0.273100000000     0.034100000000     0.902800000000     0.0553813  
H        H      0.028900000000     0.136500000000     0.214800000000     0.0553813  
H        H      0.022700000000     0.136700000000     0.341100000000     0.0553813  
H        H      0.974100000000     0.871800000000     0.325800000000     0.0553813  
H        H      0.978000000000     0.878900000000     0.199500000000     0.0553813  
H        H      0.987500000000     0.711800000000     0.890500000000     0.0553813  
H        H      0.985800000000     0.561400000000     0.888800000000     0.0553813  
H        H      0.014100000000     0.572800000000     0.113000000000     0.0553813  
H        H      0.013200000000     0.721800000000     0.113600000000     0.0553813  
H        H      0.689500000000     0.982000000000     0.881100000000     0.0553813  
H        H      0.546800000000     0.001000000000     0.888900000000     0.0553813  
H        H      0.582200000000     0.975800000000     0.105100000000     0.0553813  
H        H      0.726900000000     0.965900000000     0.097200000000     0.0553813  
H        H      0.971100000000     0.863500000000     0.785200000000     0.0553813  
H        H      0.977300000000     0.863300000000     0.658900000000     0.0553813  
H        H      0.025900000000     0.128200000000     0.674200000000     0.0553813  
H        H      0.022000000000     0.121100000000     0.800500000000     0.0553813  
H        H      0.458600000000     0.662000000000     0.559400000000     0.0553813  
H        H      0.309600000000     0.663800000000     0.562700000000     0.0553813  
H        H      0.348100000000     0.653500000000     0.781900000000     0.0553813  
H        H      0.489000000000     0.630000000000     0.774500000000     0.0553813  
H        H      0.065900000000     0.652900000000     0.790600000000     0.0553813  
H        H      0.210200000000     0.638800000000     0.781900000000     0.0553813  
H        H      0.183900000000     0.700900000000     0.571900000000     0.0553813  
H        H      0.035400000000     0.707600000000     0.576800000000     0.0553813  
H        H      0.813000000000     0.395200000000     0.777300000000     0.0553813  
H        H      0.816900000000     0.245300000000     0.775600000000     0.0553813  
H        H      0.697700000000     0.220300000000     0.568300000000     0.0553813  
H        H      0.700100000000     0.370000000000     0.568100000000     0.0553813  
H        H      0.758200000000     0.945900000000     0.561600000000     0.0553813  
H        H      0.759200000000     0.096000000000     0.561500000000     0.0553813  
H        H      0.774700000000     0.107200000000     0.783400000000     0.0553813  
H        H      0.773800000000     0.957500000000     0.784200000000     0.0553813  
H        H      0.752100000000     0.545500000000     0.873200000000     0.0553813  
H        H      0.752400000000     0.538900000000     0.999100000000     0.0553813  
H        H      0.792100000000     0.805300000000     0.014900000000     0.0553813  
H        H      0.788800000000     0.802800000000     0.886900000000     0.0553813  
H        H      0.793400000000     0.788700000000     0.477500000000     0.0553813  
H        H      0.800300000000     0.796200000000     0.351700000000     0.0553813  
H        H      0.734000000000     0.534100000000     0.333400000000     0.0553813  
H        H      0.725800000000     0.535100000000     0.459800000000     0.0553813  
H        H      0.541400000000     0.338000000000     0.440600000000     0.0553813  
H        H      0.690400000000     0.336200000000     0.437300000000     0.0553813  
H        H      0.651900000000     0.346500000000     0.218100000000     0.0553813  
H        H      0.511000000000     0.370000000000     0.225500000000     0.0553813  
H        H      0.934100000000     0.347100000000     0.209400000000     0.0553813  
H        H      0.789800000000     0.361200000000     0.218100000000     0.0553813  
H        H      0.816100000000     0.299100000000     0.428100000000     0.0553813  
H        H      0.964600000000     0.292400000000     0.423200000000     0.0553813  
H        H      0.187000000000     0.604800000000     0.222700000000     0.0553813  
H        H      0.183100000000     0.754700000000     0.224400000000     0.0553813  
H        H      0.302300000000     0.779700000000     0.431700000000     0.0553813  
H        H      0.299900000000     0.630000000000     0.431900000000     0.0553813  
H        H      0.241800000000     0.054100000000     0.438400000000     0.0553813  
H        H      0.240800000000     0.904000000000     0.438500000000     0.0553813  
H        H      0.225300000000     0.892800000000     0.216600000000     0.0553813  
H        H      0.226200000000     0.042500000000     0.215800000000     0.0553813  
H        H      0.247900000000     0.454500000000     0.126800000000     0.0553813  
H        H      0.247600000000     0.461100000000     0.000900000000     0.0553813  
H        H      0.207900000000     0.194700000000     0.985100000000     0.0553813  
H        H      0.211200000000     0.197200000000     0.113100000000     0.0553813  
H        H      0.206600000000     0.211300000000     0.522500000000     0.0553813  
H        H      0.199700000000     0.203800000000     0.648300000000     0.0553813  
H        H      0.266000000000     0.465900000000     0.666600000000     0.0553813  
H        H      0.274200000000     0.464900000000     0.540200000000     0.0553813  
C        C      0.998200000000     0.266700000000     0.998200000000     0.0189737  
C        C      0.007100000000     0.316300000000     0.064600000000     0.0189737  
C        C      0.008000000000     0.406800000000     0.065700000000     0.0189737  
C        C      0.000000000000     0.451800000000     0.999400000000     0.0189737  
C        C      0.991500000000     0.399800000000     0.932200000000     0.0189737  
C        C      0.991400000000     0.310300000000     0.931700000000     0.0189737  
C        C      0.999200000000     0.168400000000     0.999000000000     0.0189737  
C        C      0.272600000000     0.018100000000     0.009900000000     0.0189737  
C        C      0.330300000000     0.014300000000     0.072300000000     0.0189737  
C        C      0.416200000000     0.005100000000     0.067400000000     0.0189737  
C        C      0.451300000000     0.004400000000     0.000800000000     0.0189737  
C        C      0.396200000000     0.018500000000     0.940900000000     0.0189737  
C        C      0.309400000000     0.024700000000     0.946100000000     0.0189737  
C        C      0.173800000000     0.018300000000     0.013300000000     0.0189737  
C        C      0.017300000000     0.082700000000     0.237100000000     0.0189737  
C        C      0.014600000000     0.083100000000     0.313300000000     0.0189737  
C        C      0.000000000000     0.004900000000     0.348300000000     0.0189737  
C        C      0.985400000000     0.926400000000     0.304500000000     0.0189737  
C        C      0.987900000000     0.931600000000     0.228600000000     0.0189737  
C        C      0.000300000000     0.001900000000     0.429700000000     0.0189737  
C        C      0.001800000000     0.733300000000     0.001800000000     0.0189737  
C        C      0.992900000000     0.683700000000     0.935400000000     0.0189737  
C        C      0.992000000000     0.593200000000     0.934300000000     0.0189737  
C        C      0.000000000000     0.548200000000     0.000600000000     0.0189737  
C        C      0.008500000000     0.600200000000     0.067800000000     0.0189737  
C        C      0.008600000000     0.689700000000     0.068300000000     0.0189737  
C        C      0.000800000000     0.831600000000     0.001000000000     0.0189737  
C        C      0.727400000000     0.981900000000     0.990100000000     0.0189737  
C        C      0.669700000000     0.985700000000     0.927700000000     0.0189737  
C        C      0.583800000000     0.994900000000     0.932600000000     0.0189737  
C        C      0.548700000000     0.995600000000     0.999200000000     0.0189737  
C        C      0.603800000000     0.981500000000     0.059100000000     0.0189737  
C        C      0.690600000000     0.975300000000     0.053900000000     0.0189737  
C        C      0.826200000000     0.981700000000     0.986700000000     0.0189737  
C        C      0.982700000000     0.917300000000     0.762900000000     0.0189737  
C        C      0.985400000000     0.916900000000     0.686700000000     0.0189737  
C        C      0.000000000000     0.995100000000     0.651700000000     0.0189737  
C        C      0.014600000000     0.073600000000     0.695500000000     0.0189737  
C        C      0.012100000000     0.068400000000     0.771400000000     0.0189737  
C        C      0.999700000000     0.998100000000     0.570300000000     0.0189737  
C        C      0.492700000000     0.651500000000     0.665500000000     0.0189737  
C        C      0.436500000000     0.658700000000     0.605300000000     0.0189737  
C        C      0.346800000000     0.661600000000     0.607000000000     0.0189737  
C        C      0.312600000000     0.661200000000     0.672800000000     0.0189737  
C        C      0.369100000000     0.652600000000     0.735600000000     0.0189737  
C        C      0.454200000000     0.642900000000     0.731600000000     0.0189737  
C        C      0.590300000000     0.651900000000     0.663000000000     0.0189737  
C        C      0.031300000000     0.678800000000     0.682800000000     0.0189737  
C        C      0.087900000000     0.660400000000     0.744900000000     0.0189737  
C        C      0.175600000000     0.653300000000     0.739400000000     0.0189737  
C        C      0.215800000000     0.665700000000     0.676200000000     0.0189737  
C        C      0.160200000000     0.688500000000     0.616200000000     0.0189737  
C        C      0.070100000000     0.693600000000     0.619400000000     0.0189737  
C        C      0.934500000000     0.680200000000     0.682900000000     0.0189737  
C        C      0.757800000000     0.400100000000     0.671700000000     0.0189737  
C        C      0.791200000000     0.360700000000     0.733800000000     0.0189737  
C        C      0.793000000000     0.270100000000     0.732800000000     0.0189737  
C        C      0.760700000000     0.216400000000     0.671200000000     0.0189737  
C        C      0.723600000000     0.255300000000     0.610500000000     0.0189737  
C        C      0.723900000000     0.345400000000     0.611000000000     0.0189737  
C        C      0.756900000000     0.497800000000     0.669700000000     0.0189737  
C        C      0.765700000000     0.934600000000     0.672800000000     0.0189737  
C        C      0.761200000000     0.978000000000     0.606700000000     0.0189737  
C        C      0.761000000000     0.068300000000     0.606700000000     0.0189737  
C        C      0.763300000000     0.119100000000     0.672100000000     0.0189737  
C        C      0.770200000000     0.074900000000     0.738300000000     0.0189737  
C        C      0.770400000000     0.985000000000     0.738900000000     0.0189737  
C        C      0.766100000000     0.836900000000     0.673900000000     0.0189737  
C        C      0.759900000000     0.598100000000     0.902100000000     0.0189737  
C        C      0.760200000000     0.593700000000     0.977700000000     0.0189737  
C        C      0.772100000000     0.671000000000     0.022000000000     0.0189737  
C        C      0.783500000000     0.751600000000     0.987200000000     0.0189737  
C        C      0.781700000000     0.749400000000     0.910400000000     0.0189737  
C        C      0.771500000000     0.669000000000     0.105100000000     0.0189737  
C        C      0.768700000000     0.666400000000     0.246100000000     0.0189737  
C        C      0.779200000000     0.736700000000     0.447500000000     0.0189737  
C        C      0.784000000000     0.742000000000     0.372200000000     0.0189737  
C        C      0.763900000000     0.664400000000     0.327300000000     0.0189737  
C        C      0.744500000000     0.587700000000     0.361200000000     0.0189737  
C        C      0.740200000000     0.588600000000     0.437600000000     0.0189737  
C        C      0.507300000000     0.348500000000     0.334500000000     0.0189737  
C        C      0.563500000000     0.341300000000     0.394700000000     0.0189737  
C        C      0.653200000000     0.338400000000     0.393000000000     0.0189737  
C        C      0.687400000000     0.338800000000     0.327200000000     0.0189737  
C        C      0.630900000000     0.347400000000     0.264400000000     0.0189737  
C        C      0.545800000000     0.357100000000     0.268400000000     0.0189737  
C        C      0.409700000000     0.348100000000     0.337000000000     0.0189737  
C        C      0.968700000000     0.321200000000     0.317200000000     0.0189737  
C        C      0.912100000000     0.339600000000     0.255100000000     0.0189737  
C        C      0.824400000000     0.346700000000     0.260600000000     0.0189737  
C        C      0.784200000000     0.334300000000     0.323800000000     0.0189737  
C        C      0.839800000000     0.311500000000     0.383800000000     0.0189737  
C        C      0.929900000000     0.306400000000     0.380600000000     0.0189737  
C        C      0.065500000000     0.319800000000     0.317100000000     0.0189737  
C        C      0.242200000000     0.599900000000     0.328300000000     0.0189737  
C        C      0.208800000000     0.639300000000     0.266200000000     0.0189737  
C        C      0.207000000000     0.729900000000     0.267200000000     0.0189737  
C        C      0.239300000000     0.783600000000     0.328800000000     0.0189737  
C        C      0.276400000000     0.744700000000     0.389500000000     0.0189737  
C        C      0.276100000000     0.654600000000     0.389000000000     0.0189737  
C        C      0.243100000000     0.502200000000     0.330300000000     0.0189737  
C        C      0.234300000000     0.065400000000     0.327200000000     0.0189737  
C        C      0.238800000000     0.022000000000     0.393300000000     0.0189737  
C        C      0.239000000000     0.931700000000     0.393300000000     0.0189737  
C        C      0.236700000000     0.880900000000     0.327900000000     0.0189737  
C        C      0.229800000000     0.925100000000     0.261700000000     0.0189737  
C        C      0.229600000000     0.015000000000     0.261100000000     0.0189737  
C        C      0.233900000000     0.163100000000     0.326100000000     0.0189737  
C        C      0.240100000000     0.401900000000     0.097900000000     0.0189737  
C        C      0.239800000000     0.406300000000     0.022300000000     0.0189737  
C        C      0.227900000000     0.329000000000     0.978000000000     0.0189737  
C        C      0.216500000000     0.248400000000     0.012800000000     0.0189737  
C        C      0.218300000000     0.250600000000     0.089600000000     0.0189737  
C        C      0.228500000000     0.331000000000     0.894900000000     0.0189737  
C        C      0.231300000000     0.333600000000     0.753900000000     0.0189737  
C        C      0.220800000000     0.263300000000     0.552500000000     0.0189737  
C        C      0.216000000000     0.258000000000     0.627800000000     0.0189737  
C        C      0.236100000000     0.335600000000     0.672700000000     0.0189737  
C        C      0.255500000000     0.412300000000     0.638800000000     0.0189737  
C        C      0.259800000000     0.411400000000     0.562400000000     0.0189737  
N        N      0.003800000000     0.007600000000     0.194100000000    -0.112172   
N        N      0.015100000000     0.080200000000     0.468900000000    -0.112172   
N        N      0.985200000000     0.923200000000     0.458100000000    -0.112172   
N        N      0.996200000000     0.992400000000     0.805900000000    -0.112172   
N        N      0.984900000000     0.919800000000     0.531100000000    -0.112172   
N        N      0.014800000000     0.076800000000     0.541900000000    -0.112172   
N        N      0.770100000000     0.673800000000     0.868500000000    -0.112172   
N        N      0.762900000000     0.589200000000     0.135600000000    -0.112172   
N        N      0.759700000000     0.588500000000     0.207700000000    -0.112172   
N        N      0.782600000000     0.744400000000     0.215900000000    -0.112172   
N        N      0.784700000000     0.747300000000     0.143300000000    -0.112172   
N        N      0.755700000000     0.662500000000     0.479500000000    -0.112172   
N        N      0.229900000000     0.326200000000     0.131500000000    -0.112172   
N        N      0.237100000000     0.410800000000     0.864400000000    -0.112172   
N        N      0.240300000000     0.411500000000     0.792300000000    -0.112172   
N        N      0.217400000000     0.255600000000     0.784100000000    -0.112172   
N        N      0.215300000000     0.252700000000     0.856700000000    -0.112172   
N        N      0.244300000000     0.337500000000     0.520500000000    -0.112172   
O        O      0.010600000000     0.135100000000     0.061600000000    -0.294347   
O        O      0.989900000000     0.126900000000     0.936660000000    -0.294347   
O        O      0.146200000000     0.021300000000     0.075500000000    -0.294347   
O        O      0.125000000000     0.014200000000     0.951000000000    -0.294347   
O        O      0.989400000000     0.864900000000     0.938400000000    -0.294347   
O        O      0.010100000000     0.873100000000     0.063340000000    -0.294347   
O        O      0.853800000000     0.978700000000     0.924500000000    -0.294347   
O        O      0.875000000000     0.985800000000     0.049000000000    -0.294347   
O        O      0.638000000000     0.650900000000     0.725100000000    -0.294347   
O        O      0.619000000000     0.654300000000     0.601000000000    -0.294347   
O        O      0.907700000000     0.688300000000     0.746200000000    -0.294347   
O        O      0.885300000000     0.672500000000     0.622200000000    -0.294347   
O        O      0.773000000000     0.540000000000     0.732170000000    -0.294347   
O        O      0.742600000000     0.530500000000     0.608610000000    -0.294347   
O        O      0.770600000000     0.801600000000     0.735540000000    -0.294347   
O        O      0.761900000000     0.795700000000     0.611540000000    -0.294347   
O        O      0.362000000000     0.349100000000     0.274900000000    -0.294347   
O        O      0.381000000000     0.345700000000     0.399000000000    -0.294347   
O        O      0.092300000000     0.311700000000     0.253800000000    -0.294347   
O        O      0.114700000000     0.327500000000     0.377800000000    -0.294347   
O        O      0.227000000000     0.460000000000     0.267830000000    -0.294347   
O        O      0.257400000000     0.469500000000     0.391390000000    -0.294347   
O        O      0.229400000000     0.198400000000     0.264460000000    -0.294347   
O        O      0.238100000000     0.204300000000     0.388460000000    -0.294347   


