data_UXEHIP_original

_audit_creation_method RASPA-1.0
_audit_creation_date 2022-1-29
_audit_author_name 'Felipe Lopes de Oliveira <felipe.lopes.oliveira@ibm.com>'

_cell_length_a    11.683
_cell_length_b    15.571
_cell_length_c    26.71
_cell_angle_alpha 90
_cell_angle_beta  90
_cell_angle_gamma 90
_cell_volume      4858.98

_symmetry_cell_setting          triclinic
_symmetry_space_group_name_Hall 'P 1'
_symmetry_space_group_name_H-M  'P 1'
_symmetry_Int_Tables_number     1

_symmetry_equiv_pos_as_xyz 'x,y,z'

loop_
_atom_site_label
_atom_site_type_symbol
_atom_site_fract_x
_atom_site_fract_y
_atom_site_fract_z
_atom_site_charge
Zn       Zn     0.528040000000     0.566490000000     0.704280000000     0.440454   
Zn       Zn     0.971960000000     0.433510000000     0.204280000000     0.440454   
Zn       Zn     0.471960000000     0.066490000000     0.795720000000     0.440454   
Zn       Zn     0.028040000000     0.933510000000     0.295720000000     0.440454   
H        H      0.528500000000     0.472900000000     0.543900000000     0.0733566  
H        H      0.971500000000     0.527100000000     0.043900000000     0.0733566  
H        H      0.471500000000     0.972900000000     0.956100000000     0.0733566  
H        H      0.028500000000     0.027100000000     0.456100000000     0.0733566  
H        H      0.257500000000     0.526800000000     0.306000000000     0.0733566  
H        H      0.242500000000     0.473200000000     0.806000000000     0.0733566  
H        H      0.742500000000     0.026800000000     0.194000000000     0.0733566  
H        H      0.757500000000     0.973200000000     0.694000000000     0.0733566  
H        H      0.282200000000     0.661800000000     0.594200000000     0.0733566  
H        H      0.217800000000     0.338200000000     0.094200000000     0.0733566  
H        H      0.717800000000     0.161800000000     0.905800000000     0.0733566  
H        H      0.782200000000     0.838200000000     0.405800000000     0.0733566  
H        H      0.143600000000     0.745700000000     0.553800000000     0.0733566  
H        H      0.356400000000     0.254300000000     0.053800000000     0.0733566  
H        H      0.856400000000     0.245700000000     0.946200000000     0.0733566  
H        H      0.643600000000     0.754300000000     0.446200000000     0.0733566  
H        H      0.033300000000     0.778400000000     0.483900000000     0.0733566  
H        H      0.466700000000     0.221600000000     0.983900000000     0.0733566  
H        H      0.966700000000     0.278400000000     0.016100000000     0.0733566  
H        H      0.533300000000     0.721600000000     0.516100000000     0.0733566  
H        H      0.062100000000     0.698500000000     0.410200000000     0.0733566  
H        H      0.437900000000     0.301500000000     0.910200000000     0.0733566  
H        H      0.937900000000     0.198500000000     0.089800000000     0.0733566  
H        H      0.562100000000     0.801500000000     0.589800000000     0.0733566  
H        H      0.197600000000     0.594800000000     0.406900000000     0.0733566  
H        H      0.302400000000     0.405200000000     0.906900000000     0.0733566  
H        H      0.802400000000     0.094800000000     0.093100000000     0.0733566  
H        H      0.697600000000     0.905200000000     0.593100000000     0.0733566  
H        H      0.044800000000     0.309200000000     0.349400000000     0.0733566  
H        H      0.455200000000     0.690800000000     0.849400000000     0.0733566  
H        H      0.955200000000     0.809200000000     0.150600000000     0.0733566  
H        H      0.544800000000     0.190800000000     0.650600000000     0.0733566  
H        H      0.039800000000     0.219700000000     0.421100000000     0.0733566  
H        H      0.460200000000     0.780300000000     0.921100000000     0.0733566  
H        H      0.960200000000     0.719700000000     0.078900000000     0.0733566  
H        H      0.539800000000     0.280300000000     0.578900000000     0.0733566  
H        H      0.107300000000     0.176200000000     0.497800000000     0.0733566  
H        H      0.392700000000     0.823800000000     0.997800000000     0.0733566  
H        H      0.892700000000     0.676200000000     0.002200000000     0.0733566  
H        H      0.607300000000     0.323800000000     0.502200000000     0.0733566  
H        H      0.281400000000     0.241700000000     0.524500000000     0.0733566  
H        H      0.218600000000     0.758300000000     0.024500000000     0.0733566  
H        H      0.718600000000     0.741700000000     0.975500000000     0.0733566  
H        H      0.781400000000     0.258300000000     0.475500000000     0.0733566  
H        H      0.325700000000     0.376500000000     0.497600000000     0.0733566  
H        H      0.174300000000     0.623500000000     0.997600000000     0.0733566  
H        H      0.674300000000     0.876500000000     0.002400000000     0.0733566  
H        H      0.825700000000     0.123500000000     0.502400000000     0.0733566  
H        H      0.396800000000     0.532100000000     0.402700000000     0.0733566  
H        H      0.103200000000     0.467900000000     0.902700000000     0.0733566  
H        H      0.603200000000     0.032100000000     0.097300000000     0.0733566  
H        H      0.896800000000     0.967900000000     0.597300000000     0.0733566  
H        H      0.435200000000     0.454700000000     0.435700000000     0.0733566  
H        H      0.064800000000     0.545300000000     0.935700000000     0.0733566  
H        H      0.564800000000     0.954700000000     0.064300000000     0.0733566  
H        H      0.935200000000     0.045300000000     0.564300000000     0.0733566  
H        H      0.543800000000     0.422600000000     0.782800000000     0.0733566  
H        H      0.956200000000     0.577400000000     0.282800000000     0.0733566  
H        H      0.456200000000     0.922600000000     0.717200000000     0.0733566  
H        H      0.043800000000     0.077400000000     0.217200000000     0.0733566  
H        H      0.688200000000     0.416900000000     0.653700000000     0.0733566  
H        H      0.811800000000     0.583100000000     0.153700000000     0.0733566  
H        H      0.311800000000     0.916900000000     0.846300000000     0.0733566  
H        H      0.188200000000     0.083100000000     0.346300000000     0.0733566  
H        H      0.756800000000     0.295600000000     0.702000000000     0.0733566  
H        H      0.743200000000     0.704400000000     0.202000000000     0.0733566  
H        H      0.243200000000     0.795600000000     0.798000000000     0.0733566  
H        H      0.256800000000     0.204400000000     0.298000000000     0.0733566  
H        H      0.632200000000     0.214400000000     0.781400000000     0.0733566  
H        H      0.867800000000     0.785600000000     0.281400000000     0.0733566  
H        H      0.367800000000     0.714400000000     0.718600000000     0.0733566  
H        H      0.132200000000     0.285600000000     0.218600000000     0.0733566  
H        H      0.610900000000     0.285100000000     0.822300000000     0.0733566  
H        H      0.889100000000     0.714900000000     0.322300000000     0.0733566  
H        H      0.389100000000     0.785100000000     0.677700000000     0.0733566  
H        H      0.110900000000     0.214900000000     0.177700000000     0.0733566  
H        H      0.799100000000     0.136500000000     0.801500000000     0.0733566  
H        H      0.700900000000     0.863500000000     0.301500000000     0.0733566  
H        H      0.200900000000     0.636500000000     0.698500000000     0.0733566  
H        H      0.299100000000     0.363500000000     0.198500000000     0.0733566  
H        H      0.974800000000     0.121300000000     0.838100000000     0.0733566  
H        H      0.525200000000     0.878700000000     0.338100000000     0.0733566  
H        H      0.025200000000     0.621300000000     0.661900000000     0.0733566  
H        H      0.474800000000     0.378700000000     0.161900000000     0.0733566  
H        H      0.986200000000     0.373000000000     0.859300000000     0.0733566  
H        H      0.513800000000     0.627000000000     0.359300000000     0.0733566  
H        H      0.013800000000     0.873000000000     0.640700000000     0.0733566  
H        H      0.486200000000     0.127000000000     0.140700000000     0.0733566  
H        H      0.807200000000     0.385600000000     0.826900000000     0.0733566  
H        H      0.692800000000     0.614400000000     0.326900000000     0.0733566  
H        H      0.192800000000     0.885600000000     0.673100000000     0.0733566  
H        H      0.307200000000     0.114400000000     0.173100000000     0.0733566  
H        H      0.130100000000     0.287400000000     0.894500000000     0.0733566  
H        H      0.369900000000     0.712600000000     0.394500000000     0.0733566  
H        H      0.869900000000     0.787400000000     0.605500000000     0.0733566  
H        H      0.630100000000     0.212600000000     0.105500000000     0.0733566  
H        H      0.106100000000     0.188900000000     0.900100000000     0.0733566  
H        H      0.393900000000     0.811100000000     0.400100000000     0.0733566  
H        H      0.893900000000     0.688900000000     0.599900000000     0.0733566  
H        H      0.606100000000     0.311100000000     0.099900000000     0.0733566  
H        H      0.205400000000     0.319300000000     0.793700000000     0.0733566  
H        H      0.294600000000     0.680700000000     0.293700000000     0.0733566  
H        H      0.794600000000     0.819300000000     0.706300000000     0.0733566  
H        H      0.705400000000     0.180700000000     0.206300000000     0.0733566  
H        H      0.367800000000     0.249400000000     0.756200000000     0.0733566  
H        H      0.132200000000     0.750600000000     0.256200000000     0.0733566  
H        H      0.632200000000     0.749400000000     0.743800000000     0.0733566  
H        H      0.867800000000     0.250600000000     0.243800000000     0.0733566  
H        H      0.267800000000     0.111200000000     0.868800000000     0.0733566  
H        H      0.232200000000     0.888800000000     0.368800000000     0.0733566  
H        H      0.732200000000     0.611200000000     0.631200000000     0.0733566  
H        H      0.767800000000     0.388800000000     0.131200000000     0.0733566  
C        C      0.450600000000     0.557700000000     0.610500000000     0.00378299 
C        C      0.049400000000     0.442300000000     0.110500000000     0.00378299 
C        C      0.549400000000     0.057700000000     0.889500000000     0.00378299 
C        C      0.950600000000     0.942300000000     0.389500000000     0.00378299 
C        C      0.298500000000     0.632900000000     0.564600000000     0.00378299 
C        C      0.201500000000     0.367100000000     0.064600000000     0.00378299 
C        C      0.701500000000     0.132900000000     0.935400000000     0.00378299 
C        C      0.798500000000     0.867100000000     0.435400000000     0.00378299 
C        C      0.384700000000     0.576200000000     0.563900000000     0.00378299 
C        C      0.115300000000     0.423800000000     0.063900000000     0.00378299 
C        C      0.615300000000     0.076200000000     0.936100000000     0.00378299 
C        C      0.884700000000     0.923800000000     0.436100000000     0.00378299 
C        C      0.407500000000     0.532900000000     0.518800000000     0.00378299 
C        C      0.092500000000     0.467100000000     0.018800000000     0.00378299 
C        C      0.592500000000     0.032900000000     0.981200000000     0.00378299 
C        C      0.907500000000     0.967100000000     0.481200000000     0.00378299 
C        C      0.348000000000     0.544300000000     0.474900000000     0.00378299 
C        C      0.152000000000     0.455700000000     0.974900000000     0.00378299 
C        C      0.652000000000     0.044300000000     0.025100000000     0.00378299 
C        C      0.848000000000     0.955700000000     0.525100000000     0.00378299 
C        C      0.257200000000     0.602500000000     0.475700000000     0.00378299 
C        C      0.242800000000     0.397500000000     0.975700000000     0.00378299 
C        C      0.742800000000     0.102500000000     0.024300000000     0.00378299 
C        C      0.757200000000     0.897500000000     0.524300000000     0.00378299 
C        C      0.233200000000     0.650000000000     0.522700000000     0.00378299 
C        C      0.266800000000     0.350000000000     0.022700000000     0.00378299 
C        C      0.766800000000     0.150000000000     0.977300000000     0.00378299 
C        C      0.733200000000     0.850000000000     0.477300000000     0.00378299 
C        C      0.153600000000     0.714800000000     0.524300000000     0.00378299 
C        C      0.346400000000     0.285200000000     0.024300000000     0.00378299 
C        C      0.846400000000     0.214800000000     0.975700000000     0.00378299 
C        C      0.653600000000     0.785200000000     0.475700000000     0.00378299 
C        C      0.087700000000     0.734900000000     0.482700000000     0.00378299 
C        C      0.412300000000     0.265100000000     0.982700000000     0.00378299 
C        C      0.912300000000     0.234900000000     0.017300000000     0.00378299 
C        C      0.587700000000     0.765100000000     0.517300000000     0.00378299 
C        C      0.106100000000     0.687200000000     0.438500000000     0.00378299 
C        C      0.393900000000     0.312800000000     0.938500000000     0.00378299 
C        C      0.893900000000     0.187200000000     0.061500000000     0.00378299 
C        C      0.606100000000     0.812800000000     0.561500000000     0.00378299 
C        C      0.188300000000     0.624500000000     0.436800000000     0.00378299 
C        C      0.311700000000     0.375500000000     0.936800000000     0.00378299 
C        C      0.811700000000     0.124500000000     0.063200000000     0.00378299 
C        C      0.688300000000     0.875500000000     0.563200000000     0.00378299 
C        C      0.107600000000     0.428900000000     0.287000000000     0.00378299 
C        C      0.392400000000     0.571100000000     0.787000000000     0.00378299 
C        C      0.892400000000     0.928900000000     0.213000000000     0.00378299 
C        C      0.607600000000     0.071100000000     0.713000000000     0.00378299 
C        C      0.104700000000     0.340200000000     0.363600000000     0.00378299 
C        C      0.395300000000     0.659800000000     0.863600000000     0.00378299 
C        C      0.895300000000     0.840200000000     0.136400000000     0.00378299 
C        C      0.604700000000     0.159800000000     0.636400000000     0.00378299 
C        C      0.149900000000     0.409800000000     0.339700000000     0.00378299 
C        C      0.350100000000     0.590200000000     0.839700000000     0.00378299 
C        C      0.850100000000     0.909800000000     0.160300000000     0.00378299 
C        C      0.649900000000     0.090200000000     0.660300000000     0.00378299 
C        C      0.241600000000     0.453100000000     0.358700000000     0.00378299 
C        C      0.258400000000     0.546900000000     0.858700000000     0.00378299 
C        C      0.758400000000     0.953100000000     0.141300000000     0.00378299 
C        C      0.741600000000     0.046900000000     0.641300000000     0.00378299 
C        C      0.280900000000     0.439700000000     0.406500000000     0.00378299 
C        C      0.219100000000     0.560300000000     0.906500000000     0.00378299 
C        C      0.719100000000     0.939700000000     0.093500000000     0.00378299 
C        C      0.780900000000     0.060300000000     0.593500000000     0.00378299 
C        C      0.237500000000     0.368000000000     0.431400000000     0.00378299 
C        C      0.262500000000     0.632000000000     0.931400000000     0.00378299 
C        C      0.762500000000     0.868000000000     0.068600000000     0.00378299 
C        C      0.737500000000     0.132000000000     0.568600000000     0.00378299 
C        C      0.150400000000     0.316700000000     0.409600000000     0.00378299 
C        C      0.349600000000     0.683300000000     0.909600000000     0.00378299 
C        C      0.849600000000     0.816700000000     0.090400000000     0.00378299 
C        C      0.650400000000     0.183300000000     0.590400000000     0.00378299 
C        C      0.101900000000     0.248000000000     0.435300000000     0.00378299 
C        C      0.398100000000     0.752000000000     0.935300000000     0.00378299 
C        C      0.898100000000     0.748000000000     0.064700000000     0.00378299 
C        C      0.601900000000     0.252000000000     0.564700000000     0.00378299 
C        C      0.141400000000     0.220800000000     0.480100000000     0.00378299 
C        C      0.358600000000     0.779200000000     0.980100000000     0.00378299 
C        C      0.858600000000     0.720800000000     0.019900000000     0.00378299 
C        C      0.641400000000     0.279200000000     0.519900000000     0.00378299 
C        C      0.240100000000     0.265900000000     0.498300000000     0.00378299 
C        C      0.259900000000     0.734100000000     0.998300000000     0.00378299 
C        C      0.759900000000     0.765900000000     0.001700000000     0.00378299 
C        C      0.740100000000     0.234100000000     0.501700000000     0.00378299 
C        C      0.276100000000     0.341800000000     0.479400000000     0.00378299 
C        C      0.223900000000     0.658200000000     0.979400000000     0.00378299 
C        C      0.723900000000     0.841800000000     0.020600000000     0.00378299 
C        C      0.776100000000     0.158200000000     0.520600000000     0.00378299 
C        C      0.371200000000     0.492400000000     0.428400000000     0.00378299 
C        C      0.128800000000     0.507600000000     0.928400000000     0.00378299 
C        C      0.628800000000     0.992400000000     0.071600000000     0.00378299 
C        C      0.871200000000     0.007600000000     0.571600000000     0.00378299 
C        C      0.588000000000     0.406400000000     0.755400000000     0.00378299 
C        C      0.912000000000     0.593600000000     0.255400000000     0.00378299 
C        C      0.412000000000     0.906400000000     0.744600000000     0.00378299 
C        C      0.088000000000     0.093600000000     0.244600000000     0.00378299 
C        C      0.666800000000     0.404500000000     0.686500000000     0.00378299 
C        C      0.833200000000     0.595500000000     0.186500000000     0.00378299 
C        C      0.333200000000     0.904500000000     0.813500000000     0.00378299 
C        C      0.166800000000     0.095500000000     0.313500000000     0.00378299 
C        C      0.702500000000     0.335200000000     0.712700000000     0.00378299 
C        C      0.797500000000     0.664800000000     0.212700000000     0.00378299 
C        C      0.297500000000     0.835200000000     0.787300000000     0.00378299 
C        C      0.202500000000     0.164800000000     0.287300000000     0.00378299 
C        C      0.658500000000     0.269400000000     0.794000000000     0.00378299 
C        C      0.841500000000     0.730600000000     0.294000000000     0.00378299 
C        C      0.341500000000     0.769400000000     0.706000000000     0.00378299 
C        C      0.158500000000     0.230600000000     0.206000000000     0.00378299 
C        C      0.778000000000     0.262100000000     0.810200000000     0.00378299 
C        C      0.722000000000     0.737900000000     0.310200000000     0.00378299 
C        C      0.222000000000     0.762100000000     0.689800000000     0.00378299 
C        C      0.278000000000     0.237900000000     0.189800000000     0.00378299 
C        C      0.835000000000     0.185300000000     0.813900000000     0.00378299 
C        C      0.665000000000     0.814700000000     0.313900000000     0.00378299 
C        C      0.165000000000     0.685300000000     0.686100000000     0.00378299 
C        C      0.335000000000     0.314700000000     0.186100000000     0.00378299 
C        C      0.943200000000     0.175900000000     0.835000000000     0.00378299 
C        C      0.556800000000     0.824100000000     0.335000000000     0.00378299 
C        C      0.056800000000     0.675900000000     0.665000000000     0.00378299 
C        C      0.443200000000     0.324100000000     0.165000000000     0.00378299 
C        C      0.003800000000     0.246200000000     0.851200000000     0.00378299 
C        C      0.496200000000     0.753800000000     0.351200000000     0.00378299 
C        C      0.996200000000     0.746200000000     0.648800000000     0.00378299 
C        C      0.503800000000     0.253800000000     0.148800000000     0.00378299 
C        C      0.949000000000     0.324000000000     0.847900000000     0.00378299 
C        C      0.551000000000     0.676000000000     0.347900000000     0.00378299 
C        C      0.051000000000     0.824000000000     0.652100000000     0.00378299 
C        C      0.449000000000     0.176000000000     0.152100000000     0.00378299 
C        C      0.840400000000     0.331300000000     0.828200000000     0.00378299 
C        C      0.659600000000     0.668700000000     0.328200000000     0.00378299 
C        C      0.159600000000     0.831300000000     0.671800000000     0.00378299 
C        C      0.340400000000     0.168700000000     0.171800000000     0.00378299 
C        C      0.112800000000     0.235300000000     0.876000000000     0.00378299 
C        C      0.387200000000     0.764700000000     0.376000000000     0.00378299 
C        C      0.887200000000     0.735300000000     0.624000000000     0.00378299 
C        C      0.612800000000     0.264700000000     0.124000000000     0.00378299 
C        C      0.238100000000     0.267800000000     0.804000000000     0.00378299 
C        C      0.261900000000     0.732200000000     0.304000000000     0.00378299 
C        C      0.761900000000     0.767800000000     0.696000000000     0.00378299 
C        C      0.738100000000     0.232200000000     0.196000000000     0.00378299 
C        C      0.326100000000     0.228300000000     0.783100000000     0.00378299 
C        C      0.173900000000     0.771700000000     0.283100000000     0.00378299 
C        C      0.673900000000     0.728300000000     0.716900000000     0.00378299 
C        C      0.826100000000     0.271700000000     0.216900000000     0.00378299 
C        C      0.272000000000     0.153200000000     0.844100000000     0.00378299 
C        C      0.228000000000     0.846800000000     0.344100000000     0.00378299 
C        C      0.728000000000     0.653200000000     0.655900000000     0.00378299 
C        C      0.772000000000     0.346800000000     0.155900000000     0.00378299 
N        N      0.593700000000     0.454500000000     0.715400000000    -0.135368   
N        N      0.906300000000     0.545500000000     0.215400000000    -0.135368   
N        N      0.406300000000     0.954500000000     0.784600000000    -0.135368   
N        N      0.093700000000     0.045500000000     0.284600000000    -0.135368   
N        N      0.647900000000     0.332800000000     0.755700000000    -0.135368   
N        N      0.852100000000     0.667200000000     0.255700000000    -0.135368   
N        N      0.352100000000     0.832800000000     0.744300000000    -0.135368   
N        N      0.147900000000     0.167200000000     0.244300000000    -0.135368   
N        N      0.348100000000     0.148800000000     0.807800000000    -0.135368   
N        N      0.151900000000     0.851200000000     0.307800000000    -0.135368   
N        N      0.651900000000     0.648800000000     0.692200000000    -0.135368   
N        N      0.848100000000     0.351200000000     0.192200000000    -0.135368   
N        N      0.204100000000     0.217500000000     0.844200000000    -0.135368   
N        N      0.295900000000     0.782500000000     0.344200000000    -0.135368   
N        N      0.795900000000     0.717500000000     0.655800000000    -0.135368   
N        N      0.704100000000     0.282500000000     0.155800000000    -0.135368   
O        O      0.419400000000     0.591100000000     0.651020000000    -0.348823   
O        O      0.080600000000     0.408900000000     0.151020000000    -0.348823   
O        O      0.580600000000     0.091100000000     0.848980000000    -0.348823   
O        O      0.919400000000     0.908900000000     0.348980000000    -0.348823   
O        O      0.542500000000     0.518100000000     0.606240000000    -0.348823   
O        O      0.957500000000     0.481900000000     0.106240000000    -0.348823   
O        O      0.457500000000     0.018100000000     0.893760000000    -0.348823   
O        O      0.042500000000     0.981900000000     0.393760000000    -0.348823   
O        O      0.496500000000     0.475100000000     0.516590000000    -0.348823   
O        O      0.003500000000     0.524900000000     0.016590000000    -0.348823   
O        O      0.503500000000     0.975100000000     0.983410000000    -0.348823   
O        O      0.996500000000     0.024900000000     0.483410000000    -0.348823   
O        O      0.024100000000     0.387700000000     0.268010000000    -0.348823   
O        O      0.475900000000     0.612300000000     0.768010000000    -0.348823   
O        O      0.975900000000     0.887700000000     0.231990000000    -0.348823   
O        O      0.524100000000     0.112300000000     0.731990000000    -0.348823   
O        O      0.152000000000     0.490400000000     0.263330000000    -0.348823   
O        O      0.348000000000     0.509600000000     0.763330000000    -0.348823   
O        O      0.848000000000     0.990400000000     0.236670000000    -0.348823   
O        O      0.652000000000     0.009600000000     0.736670000000    -0.348823   
O        O      0.288800000000     0.521600000000     0.333360000000    -0.348823   
O        O      0.211200000000     0.478400000000     0.833360000000    -0.348823   
O        O      0.711200000000     0.021600000000     0.166640000000    -0.348823   
O        O      0.788800000000     0.978400000000     0.666640000000    -0.348823   


