data_VACFOV_original

_audit_creation_method RASPA-1.0
_audit_creation_date 2022-1-29
_audit_author_name 'Felipe Lopes de Oliveira <felipe.lopes.oliveira@ibm.com>'

_cell_length_a    12.032
_cell_length_b    15.087
_cell_length_c    15.087
_cell_angle_alpha 120
_cell_angle_beta  90
_cell_angle_gamma 90
_cell_volume      2371.78

_symmetry_cell_setting          triclinic
_symmetry_space_group_name_Hall 'P 1'
_symmetry_space_group_name_H-M  'P 1'
_symmetry_Int_Tables_number     1

_symmetry_equiv_pos_as_xyz 'x,y,z'

loop_
_atom_site_label
_atom_site_type_symbol
_atom_site_fract_x
_atom_site_fract_y
_atom_site_fract_z
_atom_site_charge
In       In     0.000000000000     0.500000000000     0.500000000000     2.40487    
In       In     0.666670000000     0.000000000000     0.500000000000     2.40487    
In       In     0.333330000000     0.500000000000     0.000000000000     2.40487    
H        H      0.756230000000     0.660970000000     0.783890000000     0.0555713  
H        H      0.745830000000     0.325260000000     0.609190000000     0.0555713  
H        H      0.422900000000     0.122920000000     0.339030000000     0.0555713  
H        H      0.412500000000     0.283930000000     0.674740000000     0.0555713  
H        H      0.089560000000     0.216110000000     0.877080000000     0.0555713  
H        H      0.079160000000     0.390810000000     0.716080000000     0.0555713  
H        H      0.756230000000     0.339030000000     0.216110000000     0.0555713  
H        H      0.745830000000     0.674740000000     0.390810000000     0.0555713  
H        H      0.422900000000     0.877080000000     0.660970000000     0.0555713  
H        H      0.412500000000     0.716070000000     0.325260000000     0.0555713  
H        H      0.089560000000     0.783890000000     0.122920000000     0.0555713  
H        H      0.079160000000     0.609190000000     0.283920000000     0.0555713  
H        H      0.911280000000     0.876830000000     0.215290000000     0.0555713  
H        H      0.921440000000     0.715460000000     0.390620000000     0.0555713  
H        H      0.244600000000     0.784720000000     0.661550000000     0.0555713  
H        H      0.254770000000     0.609380000000     0.324840000000     0.0555713  
H        H      0.577100000000     0.339030000000     0.122920000000     0.0555713  
H        H      0.587500000000     0.674740000000     0.283930000000     0.0555713  
H        H      0.911280000000     0.123170000000     0.784710000000     0.0555713  
H        H      0.921440000000     0.284540000000     0.609380000000     0.0555713  
H        H      0.244600000000     0.215280000000     0.338450000000     0.0555713  
H        H      0.254770000000     0.390620000000     0.675160000000     0.0555713  
H        H      0.577930000000     0.661550000000     0.876830000000     0.0555713  
H        H      0.588100000000     0.324840000000     0.715460000000     0.0555713  
C        C      0.848300000000     0.490500000000     0.619200000000     0.0596842  
C        C      0.753700000000     0.495500000000     0.689200000000     0.0596842  
C        C      0.713600000000     0.586200000000     0.765500000000     0.0596842  
C        C      0.709100000000     0.400400000000     0.671600000000     0.0596842  
C        C      0.514970000000     0.128700000000     0.509500000000     0.0596842  
C        C      0.420370000000     0.193700000000     0.504500000000     0.0596842  
C        C      0.380270000000     0.179300000000     0.413800000000     0.0596842  
C        C      0.375770000000     0.271200000000     0.599600000000     0.0596842  
C        C      0.181630000000     0.380800000000     0.871300000000     0.0596842  
C        C      0.087030000000     0.310800000000     0.806300000000     0.0596842  
C        C      0.046930000000     0.234500000000     0.820700000000     0.0596842  
C        C      0.042430000000     0.328400000000     0.728800000000     0.0596842  
C        C      0.848300000000     0.509500000000     0.380800000000     0.0596842  
C        C      0.753700000000     0.504500000000     0.310800000000     0.0596842  
C        C      0.713600000000     0.413800000000     0.234500000000     0.0596842  
C        C      0.709100000000     0.599600000000     0.328400000000     0.0596842  
C        C      0.514970000000     0.871300000000     0.490500000000     0.0596842  
C        C      0.420370000000     0.806300000000     0.495500000000     0.0596842  
C        C      0.380270000000     0.820700000000     0.586200000000     0.0596842  
C        C      0.375770000000     0.728800000000     0.400400000000     0.0596842  
C        C      0.181630000000     0.619200000000     0.128700000000     0.0596842  
C        C      0.087030000000     0.689200000000     0.193700000000     0.0596842  
C        C      0.046930000000     0.765500000000     0.179300000000     0.0596842  
C        C      0.042430000000     0.671600000000     0.271200000000     0.0596842  
C        C      0.818370000000     0.871300000000     0.380800000000     0.0596842  
C        C      0.912970000000     0.806300000000     0.310800000000     0.0596842  
C        C      0.953070000000     0.820700000000     0.234500000000     0.0596842  
C        C      0.957570000000     0.728800000000     0.328400000000     0.0596842  
C        C      0.151700000000     0.619200000000     0.490500000000     0.0596842  
C        C      0.246300000000     0.689200000000     0.495500000000     0.0596842  
C        C      0.286400000000     0.765500000000     0.586200000000     0.0596842  
C        C      0.290900000000     0.671600000000     0.400400000000     0.0596842  
C        C      0.485030000000     0.509500000000     0.128700000000     0.0596842  
C        C      0.579630000000     0.504500000000     0.193700000000     0.0596842  
C        C      0.619730000000     0.413800000000     0.179300000000     0.0596842  
C        C      0.624230000000     0.599600000000     0.271200000000     0.0596842  
C        C      0.818370000000     0.128700000000     0.619200000000     0.0596842  
C        C      0.912970000000     0.193700000000     0.689200000000     0.0596842  
C        C      0.953070000000     0.179300000000     0.765500000000     0.0596842  
C        C      0.957570000000     0.271200000000     0.671600000000     0.0596842  
C        C      0.151700000000     0.380800000000     0.509500000000     0.0596842  
C        C      0.246300000000     0.310800000000     0.504500000000     0.0596842  
C        C      0.286400000000     0.234500000000     0.413800000000     0.0596842  
C        C      0.290900000000     0.328400000000     0.599600000000     0.0596842  
C        C      0.485030000000     0.490500000000     0.871300000000     0.0596842  
C        C      0.579630000000     0.495500000000     0.806300000000     0.0596842  
C        C      0.619730000000     0.586200000000     0.820700000000     0.0596842  
C        C      0.624230000000     0.400400000000     0.728800000000     0.0596842  
O        O      0.897100000000     0.578400000000     0.645200000000    -0.475548   
O        O      0.874200000000     0.413500000000     0.541600000000    -0.475548   
O        O      0.563770000000     0.066800000000     0.421600000000    -0.475548   
O        O      0.540870000000     0.128100000000     0.586500000000    -0.475548   
O        O      0.230430000000     0.354800000000     0.933200000000    -0.475548   
O        O      0.207530000000     0.458400000000     0.871900000000    -0.475548   
O        O      0.897100000000     0.421600000000     0.354800000000    -0.475548   
O        O      0.874200000000     0.586500000000     0.458400000000    -0.475548   
O        O      0.563770000000     0.933200000000     0.578400000000    -0.475548   
O        O      0.540870000000     0.871900000000     0.413500000000    -0.475548   
O        O      0.230430000000     0.645200000000     0.066800000000    -0.475548   
O        O      0.207530000000     0.541600000000     0.128100000000    -0.475548   
O        O      0.769570000000     0.933200000000     0.354800000000    -0.475548   
O        O      0.792470000000     0.871900000000     0.458400000000    -0.475548   
O        O      0.102900000000     0.645200000000     0.578400000000    -0.475548   
O        O      0.125800000000     0.541600000000     0.413500000000    -0.475548   
O        O      0.436230000000     0.421600000000     0.066800000000    -0.475548   
O        O      0.459130000000     0.586500000000     0.128100000000    -0.475548   
O        O      0.769570000000     0.066800000000     0.645200000000    -0.475548   
O        O      0.792470000000     0.128100000000     0.541600000000    -0.475548   
O        O      0.102900000000     0.354800000000     0.421600000000    -0.475548   
O        O      0.125800000000     0.458400000000     0.586500000000    -0.475548   
O        O      0.436230000000     0.578400000000     0.933200000000    -0.475548   
O        O      0.459130000000     0.413500000000     0.871900000000    -0.475548   


