data_VEJYUF02_original

_audit_creation_method RASPA-1.0
_audit_creation_date 2022-1-31
_audit_author_name 'Felipe Lopes de Oliveira <felipe.lopes.oliveira@ibm.com>'

_cell_length_a    15.1069
_cell_length_b    15.3486
_cell_length_c    18.343
_cell_angle_alpha 90
_cell_angle_beta  90
_cell_angle_gamma 90
_cell_volume      4253.19

_symmetry_cell_setting          triclinic
_symmetry_space_group_name_Hall 'P 1'
_symmetry_space_group_name_H-M  'P 1'
_symmetry_Int_Tables_number     1

_symmetry_equiv_pos_as_xyz 'x,y,z'

loop_
_atom_site_label
_atom_site_type_symbol
_atom_site_fract_x
_atom_site_fract_y
_atom_site_fract_z
_atom_site_charge
Zn       Zn     0.861520000000     0.794350000000     0.591560000000     0.339092   
Zn       Zn     0.662940000000     0.487320000000     0.686700000000     0.339092   
Zn       Zn     0.138480000000     0.705650000000     0.091560000000     0.339092   
Zn       Zn     0.337060000000     0.012680000000     0.186700000000     0.339092   
Zn       Zn     0.361520000000     0.205650000000     0.908440000000     0.339092   
Zn       Zn     0.162940000000     0.512680000000     0.813300000000     0.339092   
Zn       Zn     0.638480000000     0.294350000000     0.408440000000     0.339092   
Zn       Zn     0.837060000000     0.987320000000     0.313300000000     0.339092   
Zn       Zn     0.138480000000     0.205650000000     0.408440000000     0.339092   
Zn       Zn     0.337060000000     0.512680000000     0.313300000000     0.339092   
Zn       Zn     0.861520000000     0.294350000000     0.908440000000     0.339092   
Zn       Zn     0.662940000000     0.987320000000     0.813300000000     0.339092   
Zn       Zn     0.638480000000     0.794350000000     0.091560000000     0.339092   
Zn       Zn     0.837060000000     0.487320000000     0.186700000000     0.339092   
Zn       Zn     0.361520000000     0.705650000000     0.591560000000     0.339092   
Zn       Zn     0.162940000000     0.012680000000     0.686700000000     0.339092   
H        H      0.718900000000     0.673900000000     0.653100000000     0.0117379  
H        H      0.941800000000     0.599300000000     0.572900000000     0.0117379  
H        H      0.860600000000     0.470900000000     0.613400000000     0.0117379  
H        H      0.814500000000     0.933200000000     0.475600000000     0.0117379  
H        H      0.947700000000     0.724800000000     0.442700000000     0.0117379  
H        H      0.935700000000     0.802700000000     0.327700000000     0.0117379  
H        H      0.016800000000     0.933800000000     0.595500000000     0.0117379  
H        H      0.962400000000     0.761600000000     0.740200000000     0.0117379  
H        H      0.071900000000     0.860900000000     0.790000000000     0.0117379  
H        H      0.811000000000     0.894600000000     0.729000000000     0.0117379  
H        H      0.574600000000     0.936700000000     0.660400000000     0.0117379  
H        H      0.657200000000     0.864200000000     0.564200000000     0.0117379  
H        H      0.281100000000     0.826100000000     0.153100000000     0.0117379  
H        H      0.058200000000     0.900700000000     0.072900000000     0.0117379  
H        H      0.139400000000     0.029100000000     0.113400000000     0.0117379  
H        H      0.185500000000     0.566800000000     0.975600000000     0.0117379  
H        H      0.052300000000     0.775200000000     0.942700000000     0.0117379  
H        H      0.064300000000     0.697300000000     0.827700000000     0.0117379  
H        H      0.983200000000     0.566200000000     0.095500000000     0.0117379  
H        H      0.037600000000     0.738400000000     0.240200000000     0.0117379  
H        H      0.928100000000     0.639100000000     0.290000000000     0.0117379  
H        H      0.189000000000     0.605400000000     0.229000000000     0.0117379  
H        H      0.425400000000     0.563300000000     0.160400000000     0.0117379  
H        H      0.342800000000     0.635800000000     0.064200000000     0.0117379  
H        H      0.218900000000     0.326100000000     0.846900000000     0.0117379  
H        H      0.441800000000     0.400700000000     0.927100000000     0.0117379  
H        H      0.360600000000     0.529100000000     0.886600000000     0.0117379  
H        H      0.314500000000     0.066800000000     0.024400000000     0.0117379  
H        H      0.447700000000     0.275200000000     0.057300000000     0.0117379  
H        H      0.435700000000     0.197300000000     0.172300000000     0.0117379  
H        H      0.516800000000     0.066200000000     0.904500000000     0.0117379  
H        H      0.462400000000     0.238400000000     0.759800000000     0.0117379  
H        H      0.571900000000     0.139100000000     0.710000000000     0.0117379  
H        H      0.311000000000     0.105400000000     0.771000000000     0.0117379  
H        H      0.074600000000     0.063300000000     0.839600000000     0.0117379  
H        H      0.157200000000     0.135800000000     0.935800000000     0.0117379  
H        H      0.781100000000     0.173900000000     0.346900000000     0.0117379  
H        H      0.558200000000     0.099300000000     0.427100000000     0.0117379  
H        H      0.639400000000     0.970900000000     0.386600000000     0.0117379  
H        H      0.685500000000     0.433200000000     0.524400000000     0.0117379  
H        H      0.552300000000     0.224800000000     0.557300000000     0.0117379  
H        H      0.564300000000     0.302700000000     0.672300000000     0.0117379  
H        H      0.483200000000     0.433800000000     0.404500000000     0.0117379  
H        H      0.537600000000     0.261600000000     0.259800000000     0.0117379  
H        H      0.428100000000     0.360900000000     0.210000000000     0.0117379  
H        H      0.689000000000     0.394600000000     0.271000000000     0.0117379  
H        H      0.925400000000     0.436700000000     0.339600000000     0.0117379  
H        H      0.842800000000     0.364200000000     0.435800000000     0.0117379  
H        H      0.281100000000     0.326100000000     0.346900000000     0.0117379  
H        H      0.058200000000     0.400700000000     0.427100000000     0.0117379  
H        H      0.139400000000     0.529100000000     0.386600000000     0.0117379  
H        H      0.185500000000     0.066800000000     0.524400000000     0.0117379  
H        H      0.052300000000     0.275200000000     0.557300000000     0.0117379  
H        H      0.064300000000     0.197300000000     0.672300000000     0.0117379  
H        H      0.983200000000     0.066200000000     0.404500000000     0.0117379  
H        H      0.037600000000     0.238400000000     0.259800000000     0.0117379  
H        H      0.928100000000     0.139100000000     0.210000000000     0.0117379  
H        H      0.189000000000     0.105400000000     0.271000000000     0.0117379  
H        H      0.425400000000     0.063300000000     0.339600000000     0.0117379  
H        H      0.342800000000     0.135800000000     0.435800000000     0.0117379  
H        H      0.718900000000     0.173900000000     0.846900000000     0.0117379  
H        H      0.941800000000     0.099300000000     0.927100000000     0.0117379  
H        H      0.860600000000     0.970900000000     0.886600000000     0.0117379  
H        H      0.814500000000     0.433200000000     0.024400000000     0.0117379  
H        H      0.947700000000     0.224800000000     0.057300000000     0.0117379  
H        H      0.935700000000     0.302700000000     0.172300000000     0.0117379  
H        H      0.016800000000     0.433800000000     0.904500000000     0.0117379  
H        H      0.962400000000     0.261600000000     0.759800000000     0.0117379  
H        H      0.071900000000     0.360900000000     0.710000000000     0.0117379  
H        H      0.811000000000     0.394600000000     0.771000000000     0.0117379  
H        H      0.574600000000     0.436700000000     0.839600000000     0.0117379  
H        H      0.657200000000     0.364200000000     0.935800000000     0.0117379  
H        H      0.781100000000     0.673900000000     0.153100000000     0.0117379  
H        H      0.558200000000     0.599300000000     0.072900000000     0.0117379  
H        H      0.639400000000     0.470900000000     0.113400000000     0.0117379  
H        H      0.685500000000     0.933200000000     0.975600000000     0.0117379  
H        H      0.552300000000     0.724800000000     0.942700000000     0.0117379  
H        H      0.564300000000     0.802700000000     0.827700000000     0.0117379  
H        H      0.483200000000     0.933800000000     0.095500000000     0.0117379  
H        H      0.537600000000     0.761600000000     0.240200000000     0.0117379  
H        H      0.428100000000     0.860900000000     0.290000000000     0.0117379  
H        H      0.689000000000     0.894600000000     0.229000000000     0.0117379  
H        H      0.925400000000     0.936700000000     0.160400000000     0.0117379  
H        H      0.842800000000     0.864200000000     0.064200000000     0.0117379  
H        H      0.218900000000     0.826100000000     0.653100000000     0.0117379  
H        H      0.441800000000     0.900700000000     0.572900000000     0.0117379  
H        H      0.360600000000     0.029100000000     0.613400000000     0.0117379  
H        H      0.314500000000     0.566800000000     0.475600000000     0.0117379  
H        H      0.447700000000     0.775200000000     0.442700000000     0.0117379  
H        H      0.435700000000     0.697300000000     0.327700000000     0.0117379  
H        H      0.516800000000     0.566200000000     0.595500000000     0.0117379  
H        H      0.462400000000     0.738400000000     0.740200000000     0.0117379  
H        H      0.571900000000     0.639100000000     0.790000000000     0.0117379  
H        H      0.311000000000     0.605400000000     0.729000000000     0.0117379  
H        H      0.074600000000     0.563300000000     0.660400000000     0.0117379  
H        H      0.157200000000     0.635800000000     0.564200000000     0.0117379  
C        C      0.765900000000     0.638600000000     0.638900000000     0.044973   
C        C      0.886500000000     0.599600000000     0.595200000000     0.044973   
C        C      0.841400000000     0.528200000000     0.617400000000     0.044973   
C        C      0.848000000000     0.890400000000     0.452600000000     0.044973   
C        C      0.918800000000     0.777700000000     0.436100000000     0.044973   
C        C      0.912600000000     0.821000000000     0.372200000000     0.044973   
C        C      0.015700000000     0.903400000000     0.639400000000     0.044973   
C        C      0.985400000000     0.810200000000     0.716600000000     0.044973   
C        C      0.047300000000     0.864700000000     0.743600000000     0.044973   
C        C      0.761500000000     0.896700000000     0.698900000000     0.044973   
C        C      0.633900000000     0.920900000000     0.662600000000     0.044973   
C        C      0.679200000000     0.878300000000     0.610100000000     0.044973   
C        C      0.234100000000     0.861400000000     0.138900000000     0.044973   
C        C      0.113500000000     0.900400000000     0.095200000000     0.044973   
C        C      0.158600000000     0.971800000000     0.117400000000     0.044973   
C        C      0.152000000000     0.609600000000     0.952600000000     0.044973   
C        C      0.081200000000     0.722300000000     0.936100000000     0.044973   
C        C      0.087400000000     0.679000000000     0.872200000000     0.044973   
C        C      0.984300000000     0.596600000000     0.139400000000     0.044973   
C        C      0.014600000000     0.689800000000     0.216600000000     0.044973   
C        C      0.952700000000     0.635300000000     0.243600000000     0.044973   
C        C      0.238500000000     0.603300000000     0.198900000000     0.044973   
C        C      0.366100000000     0.579100000000     0.162600000000     0.044973   
C        C      0.320800000000     0.621700000000     0.110100000000     0.044973   
C        C      0.265900000000     0.361400000000     0.861100000000     0.044973   
C        C      0.386500000000     0.400400000000     0.904800000000     0.044973   
C        C      0.341400000000     0.471800000000     0.882600000000     0.044973   
C        C      0.348000000000     0.109600000000     0.047400000000     0.044973   
C        C      0.418800000000     0.222300000000     0.063900000000     0.044973   
C        C      0.412600000000     0.179000000000     0.127800000000     0.044973   
C        C      0.515700000000     0.096600000000     0.860600000000     0.044973   
C        C      0.485400000000     0.189800000000     0.783400000000     0.044973   
C        C      0.547300000000     0.135300000000     0.756400000000     0.044973   
C        C      0.261500000000     0.103300000000     0.801100000000     0.044973   
C        C      0.133900000000     0.079100000000     0.837400000000     0.044973   
C        C      0.179200000000     0.121700000000     0.889900000000     0.044973   
C        C      0.734100000000     0.138600000000     0.361100000000     0.044973   
C        C      0.613500000000     0.099600000000     0.404800000000     0.044973   
C        C      0.658600000000     0.028200000000     0.382600000000     0.044973   
C        C      0.652000000000     0.390400000000     0.547400000000     0.044973   
C        C      0.581200000000     0.277700000000     0.563900000000     0.044973   
C        C      0.587400000000     0.321000000000     0.627800000000     0.044973   
C        C      0.484300000000     0.403400000000     0.360600000000     0.044973   
C        C      0.514600000000     0.310200000000     0.283400000000     0.044973   
C        C      0.452700000000     0.364700000000     0.256400000000     0.044973   
C        C      0.738500000000     0.396700000000     0.301100000000     0.044973   
C        C      0.866100000000     0.420900000000     0.337400000000     0.044973   
C        C      0.820800000000     0.378300000000     0.389900000000     0.044973   
C        C      0.234100000000     0.361400000000     0.361100000000     0.044973   
C        C      0.113500000000     0.400400000000     0.404800000000     0.044973   
C        C      0.158600000000     0.471800000000     0.382600000000     0.044973   
C        C      0.152000000000     0.109600000000     0.547400000000     0.044973   
C        C      0.081200000000     0.222300000000     0.563900000000     0.044973   
C        C      0.087400000000     0.179000000000     0.627800000000     0.044973   
C        C      0.984300000000     0.096600000000     0.360600000000     0.044973   
C        C      0.014600000000     0.189800000000     0.283400000000     0.044973   
C        C      0.952700000000     0.135300000000     0.256400000000     0.044973   
C        C      0.238500000000     0.103300000000     0.301100000000     0.044973   
C        C      0.366100000000     0.079100000000     0.337400000000     0.044973   
C        C      0.320800000000     0.121700000000     0.389900000000     0.044973   
C        C      0.765900000000     0.138600000000     0.861100000000     0.044973   
C        C      0.886500000000     0.099600000000     0.904800000000     0.044973   
C        C      0.841400000000     0.028200000000     0.882600000000     0.044973   
C        C      0.848000000000     0.390400000000     0.047400000000     0.044973   
C        C      0.918800000000     0.277700000000     0.063900000000     0.044973   
C        C      0.912600000000     0.321000000000     0.127800000000     0.044973   
C        C      0.015700000000     0.403400000000     0.860600000000     0.044973   
C        C      0.985400000000     0.310200000000     0.783400000000     0.044973   
C        C      0.047300000000     0.364700000000     0.756400000000     0.044973   
C        C      0.761500000000     0.396700000000     0.801100000000     0.044973   
C        C      0.633900000000     0.420900000000     0.837400000000     0.044973   
C        C      0.679200000000     0.378300000000     0.889900000000     0.044973   
C        C      0.734100000000     0.638600000000     0.138900000000     0.044973   
C        C      0.613500000000     0.599600000000     0.095200000000     0.044973   
C        C      0.658600000000     0.528200000000     0.117400000000     0.044973   
C        C      0.652000000000     0.890400000000     0.952600000000     0.044973   
C        C      0.581200000000     0.777700000000     0.936100000000     0.044973   
C        C      0.587400000000     0.821000000000     0.872200000000     0.044973   
C        C      0.484300000000     0.903400000000     0.139400000000     0.044973   
C        C      0.514600000000     0.810200000000     0.216600000000     0.044973   
C        C      0.452700000000     0.864700000000     0.243600000000     0.044973   
C        C      0.738500000000     0.896700000000     0.198900000000     0.044973   
C        C      0.866100000000     0.920900000000     0.162600000000     0.044973   
C        C      0.820800000000     0.878300000000     0.110100000000     0.044973   
C        C      0.265900000000     0.861400000000     0.638900000000     0.044973   
C        C      0.386500000000     0.900400000000     0.595200000000     0.044973   
C        C      0.341400000000     0.971800000000     0.617400000000     0.044973   
C        C      0.348000000000     0.609600000000     0.452600000000     0.044973   
C        C      0.418800000000     0.722300000000     0.436100000000     0.044973   
C        C      0.412600000000     0.679000000000     0.372200000000     0.044973   
C        C      0.515700000000     0.596600000000     0.639400000000     0.044973   
C        C      0.485400000000     0.689800000000     0.716600000000     0.044973   
C        C      0.547300000000     0.635300000000     0.743600000000     0.044973   
C        C      0.261500000000     0.603300000000     0.698900000000     0.044973   
C        C      0.133900000000     0.579100000000     0.662600000000     0.044973   
C        C      0.179200000000     0.621700000000     0.610100000000     0.044973   
N        N      0.765600000000     0.553900000000     0.646200000000    -0.169839   
N        N      0.839200000000     0.669400000000     0.609900000000    -0.169839   
N        N      0.869000000000     0.894200000000     0.383500000000    -0.169839   
N        N      0.877500000000     0.821000000000     0.487300000000    -0.169839   
N        N      0.066900000000     0.924100000000     0.694700000000    -0.169839   
N        N      0.963100000000     0.837000000000     0.650800000000    -0.169839   
N        N      0.687300000000     0.935600000000     0.717600000000    -0.169839   
N        N      0.759400000000     0.860500000000     0.634000000000    -0.169839   
N        N      0.234400000000     0.946100000000     0.146200000000    -0.169839   
N        N      0.160800000000     0.830600000000     0.109900000000    -0.169839   
N        N      0.131000000000     0.605800000000     0.883500000000    -0.169839   
N        N      0.122500000000     0.679000000000     0.987300000000    -0.169839   
N        N      0.933100000000     0.575900000000     0.194700000000    -0.169839   
N        N      0.036900000000     0.663000000000     0.150800000000    -0.169839   
N        N      0.312700000000     0.564400000000     0.217600000000    -0.169839   
N        N      0.240600000000     0.639500000000     0.134000000000    -0.169839   
N        N      0.265600000000     0.446100000000     0.853800000000    -0.169839   
N        N      0.339200000000     0.330600000000     0.890100000000    -0.169839   
N        N      0.369000000000     0.105800000000     0.116500000000    -0.169839   
N        N      0.377500000000     0.179000000000     0.012700000000    -0.169839   
N        N      0.566900000000     0.075900000000     0.805300000000    -0.169839   
N        N      0.463100000000     0.163000000000     0.849200000000    -0.169839   
N        N      0.187300000000     0.064400000000     0.782400000000    -0.169839   
N        N      0.259400000000     0.139500000000     0.866000000000    -0.169839   
N        N      0.734400000000     0.053900000000     0.353800000000    -0.169839   
N        N      0.660800000000     0.169400000000     0.390100000000    -0.169839   
N        N      0.631000000000     0.394200000000     0.616500000000    -0.169839   
N        N      0.622500000000     0.321000000000     0.512700000000    -0.169839   
N        N      0.433100000000     0.424100000000     0.305300000000    -0.169839   
N        N      0.536900000000     0.337000000000     0.349200000000    -0.169839   
N        N      0.812700000000     0.435600000000     0.282400000000    -0.169839   
N        N      0.740600000000     0.360500000000     0.366000000000    -0.169839   
N        N      0.234400000000     0.446100000000     0.353800000000    -0.169839   
N        N      0.160800000000     0.330600000000     0.390100000000    -0.169839   
N        N      0.131000000000     0.105800000000     0.616500000000    -0.169839   
N        N      0.122500000000     0.179000000000     0.512700000000    -0.169839   
N        N      0.933100000000     0.075900000000     0.305300000000    -0.169839   
N        N      0.036900000000     0.163000000000     0.349200000000    -0.169839   
N        N      0.312700000000     0.064400000000     0.282400000000    -0.169839   
N        N      0.240600000000     0.139500000000     0.366000000000    -0.169839   
N        N      0.765600000000     0.053900000000     0.853800000000    -0.169839   
N        N      0.839200000000     0.169400000000     0.890100000000    -0.169839   
N        N      0.869000000000     0.394200000000     0.116500000000    -0.169839   
N        N      0.877500000000     0.321000000000     0.012700000000    -0.169839   
N        N      0.066900000000     0.424100000000     0.805300000000    -0.169839   
N        N      0.963100000000     0.337000000000     0.849200000000    -0.169839   
N        N      0.687300000000     0.435600000000     0.782400000000    -0.169839   
N        N      0.759400000000     0.360500000000     0.866000000000    -0.169839   
N        N      0.734400000000     0.553900000000     0.146200000000    -0.169839   
N        N      0.660800000000     0.669400000000     0.109900000000    -0.169839   
N        N      0.631000000000     0.894200000000     0.883500000000    -0.169839   
N        N      0.622500000000     0.821000000000     0.987300000000    -0.169839   
N        N      0.433100000000     0.924100000000     0.194700000000    -0.169839   
N        N      0.536900000000     0.837000000000     0.150800000000    -0.169839   
N        N      0.812700000000     0.935600000000     0.217600000000    -0.169839   
N        N      0.740600000000     0.860500000000     0.134000000000    -0.169839   
N        N      0.265600000000     0.946100000000     0.646200000000    -0.169839   
N        N      0.339200000000     0.830600000000     0.609900000000    -0.169839   
N        N      0.369000000000     0.605800000000     0.383500000000    -0.169839   
N        N      0.377500000000     0.679000000000     0.487300000000    -0.169839   
N        N      0.566900000000     0.575900000000     0.694700000000    -0.169839   
N        N      0.463100000000     0.663000000000     0.650800000000    -0.169839   
N        N      0.187300000000     0.564400000000     0.717600000000    -0.169839   
N        N      0.259400000000     0.639500000000     0.634000000000    -0.169839   


