data_VEMMAC_original

_audit_creation_method RASPA-1.0
_audit_creation_date 2022-1-31
_audit_author_name 'Felipe Lopes de Oliveira <felipe.lopes.oliveira@ibm.com>'

_cell_length_a    11.5713
_cell_length_b    11.736
_cell_length_c    13.619
_cell_angle_alpha 92.869
_cell_angle_beta  114.443
_cell_angle_gamma 107.988
_cell_volume      1567.27

_symmetry_cell_setting          triclinic
_symmetry_space_group_name_Hall 'P 1'
_symmetry_space_group_name_H-M  'P 1'
_symmetry_Int_Tables_number     1

_symmetry_equiv_pos_as_xyz 'x,y,z'

loop_
_atom_site_label
_atom_site_type_symbol
_atom_site_fract_x
_atom_site_fract_y
_atom_site_fract_z
_atom_site_charge
Zn       Zn     0.104390000000     0.233920000000     0.953610000000     0.332705   
Zn       Zn     0.895610000000     0.766080000000     0.046390000000     0.332705   
Zn       Zn     0.000000000000     0.500000000000     0.000000000000     0.332705   
H        H      0.672300000000     0.929300000000     0.025000000000     0.0586863  
H        H      0.119500000000     0.375400000000     0.575000000000     0.0586863  
H        H      0.351200000000     0.602300000000     0.437200000000     0.0586863  
H        H      0.907700000000     0.579100000000     0.594400000000     0.0586863  
H        H      0.513000000000     0.368300000000     0.377700000000     0.0586863  
H        H      0.519800000000     0.189800000000     0.961400000000     0.0586863  
H        H      0.327700000000     0.070700000000     0.975000000000     0.0586863  
H        H      0.880500000000     0.624600000000     0.425000000000     0.0586863  
H        H      0.648800000000     0.397700000000     0.562800000000     0.0586863  
H        H      0.092300000000     0.420900000000     0.405600000000     0.0586863  
H        H      0.487000000000     0.631700000000     0.622300000000     0.0586863  
H        H      0.480200000000     0.810200000000     0.038600000000     0.0586863  
C        C      0.737000000000     0.150800000000     0.984200000000     0.00886598 
C        C      0.027200000000     0.442200000000     0.708100000000     0.00886598 
C        C      0.329100000000     0.461300000000     0.267900000000     0.00886598 
C        C      0.013700000000     0.471300000000     0.601400000000     0.00886598 
C        C      0.418500000000     0.483000000000     0.387200000000     0.00886598 
C        C      0.603200000000     0.959100000000     0.014600000000     0.00886598 
C        C      0.070800000000     0.425300000000     0.545000000000     0.00886598 
C        C      0.411400000000     0.561000000000     0.462200000000     0.00886598 
C        C      0.944800000000     0.546400000000     0.556400000000     0.00886598 
C        C      0.614600000000     0.072500000000     0.991200000000     0.00886598 
C        C      0.507700000000     0.421900000000     0.427000000000     0.00886598 
C        C      0.512900000000     0.112500000000     0.977100000000     0.00886598 
C        C      0.263000000000     0.849200000000     0.015800000000     0.00886598 
C        C      0.972800000000     0.557800000000     0.291900000000     0.00886598 
C        C      0.670900000000     0.538700000000     0.732100000000     0.00886598 
C        C      0.986300000000     0.528700000000     0.398600000000     0.00886598 
C        C      0.581500000000     0.517000000000     0.612800000000     0.00886598 
C        C      0.396800000000     0.040900000000     0.985400000000     0.00886598 
C        C      0.929200000000     0.574700000000     0.455000000000     0.00886598 
C        C      0.588600000000     0.439000000000     0.537800000000     0.00886598 
C        C      0.055200000000     0.453600000000     0.443600000000     0.00886598 
C        C      0.385400000000     0.927500000000     0.008800000000     0.00886598 
C        C      0.492300000000     0.578100000000     0.573000000000     0.00886598 
C        C      0.487100000000     0.887500000000     0.022900000000     0.00886598 
N        N      0.301600000000     0.363700000000     0.195500000000    -0.0797973  
N        N      0.829700000000     0.112700000000     0.972200000000    -0.0797973  
N        N      0.055800000000     0.353200000000     0.842400000000    -0.0797973  
N        N      0.014100000000     0.510500000000     0.781000000000    -0.0797973  
N        N      0.210000000000     0.374200000000     0.099800000000    -0.0797973  
N        N      0.032600000000     0.452700000000     0.864500000000    -0.0797973  
N        N      0.920500000000     0.212900000000     0.970500000000    -0.0797973  
N        N      0.884700000000     0.307300000000     0.980700000000    -0.0797973  
N        N      0.185100000000     0.474800000000     0.114200000000    -0.0797973  
N        N      0.769100000000     0.271800000000     0.989300000000    -0.0797973  
N        N      0.053400000000     0.344000000000     0.743300000000    -0.0797973  
N        N      0.260100000000     0.532300000000     0.220200000000    -0.0797973  
N        N      0.698400000000     0.636300000000     0.804500000000    -0.0797973  
N        N      0.170300000000     0.887300000000     0.027800000000    -0.0797973  
N        N      0.944200000000     0.646800000000     0.157600000000    -0.0797973  
N        N      0.985900000000     0.489500000000     0.219000000000    -0.0797973  
N        N      0.790000000000     0.625800000000     0.900200000000    -0.0797973  
N        N      0.967400000000     0.547300000000     0.135500000000    -0.0797973  
N        N      0.079500000000     0.787100000000     0.029500000000    -0.0797973  
N        N      0.115300000000     0.692700000000     0.019300000000    -0.0797973  
N        N      0.814900000000     0.525200000000     0.885800000000    -0.0797973  
N        N      0.230900000000     0.728200000000     0.010700000000    -0.0797973  
N        N      0.946600000000     0.656000000000     0.256700000000    -0.0797973  
N        N      0.739900000000     0.467700000000     0.779800000000    -0.0797973  


