data_VEXVAW_original

_audit_creation_method RASPA-1.0
_audit_creation_date 2022-1-31
_audit_author_name 'Felipe Lopes de Oliveira <felipe.lopes.oliveira@ibm.com>'

_cell_length_a    18.8313
_cell_length_b    18.8313
_cell_length_c    18.8313
_cell_angle_alpha 61.456
_cell_angle_beta  61.456
_cell_angle_gamma 61.456
_cell_volume      4876.38

_symmetry_cell_setting          triclinic
_symmetry_space_group_name_Hall 'P 1'
_symmetry_space_group_name_H-M  'P 1'
_symmetry_Int_Tables_number     1

_symmetry_equiv_pos_as_xyz 'x,y,z'

loop_
_atom_site_label
_atom_site_type_symbol
_atom_site_fract_x
_atom_site_fract_y
_atom_site_fract_z
_atom_site_charge
Fe       Fe     0.348820000000     0.151180000000     0.250000000000     0.9571     
Fe       Fe     0.250000000000     0.348820000000     0.151180000000     0.9571     
Fe       Fe     0.151180000000     0.250000000000     0.348820000000     0.9571     
Fe       Fe     0.651180000000     0.848820000000     0.750000000000     0.9571     
Fe       Fe     0.750000000000     0.651180000000     0.848820000000     0.9571     
Fe       Fe     0.848820000000     0.750000000000     0.651180000000     0.9571     
H        H      0.481100000000     0.031100000000     0.348000000000     0.0469232  
H        H      0.496400000000     0.918000000000     0.474900000000     0.0469232  
H        H      0.550900000000     0.885900000000     0.578200000000     0.0469232  
H        H      0.792000000000     0.825100000000     0.415300000000     0.0469232  
H        H      0.737700000000     0.858900000000     0.310100000000     0.0469232  
H        H      0.348000000000     0.481100000000     0.031100000000     0.0469232  
H        H      0.474900000000     0.496400000000     0.918000000000     0.0469232  
H        H      0.578200000000     0.550900000000     0.885900000000     0.0469232  
H        H      0.415300000000     0.792000000000     0.825100000000     0.0469232  
H        H      0.310100000000     0.737700000000     0.858900000000     0.0469232  
H        H      0.031100000000     0.348000000000     0.481100000000     0.0469232  
H        H      0.918000000000     0.474900000000     0.496400000000     0.0469232  
H        H      0.885900000000     0.578200000000     0.550900000000     0.0469232  
H        H      0.825100000000     0.415300000000     0.792000000000     0.0469232  
H        H      0.858900000000     0.310100000000     0.737700000000     0.0469232  
H        H      0.468900000000     0.018900000000     0.152000000000     0.0469232  
H        H      0.582000000000     0.003600000000     0.025100000000     0.0469232  
H        H      0.614100000000     0.949100000000     0.921800000000     0.0469232  
H        H      0.674900000000     0.708000000000     0.084700000000     0.0469232  
H        H      0.641100000000     0.762300000000     0.189900000000     0.0469232  
H        H      0.018900000000     0.152000000000     0.468900000000     0.0469232  
H        H      0.003600000000     0.025100000000     0.582000000000     0.0469232  
H        H      0.949100000000     0.921800000000     0.614100000000     0.0469232  
H        H      0.708000000000     0.084700000000     0.674900000000     0.0469232  
H        H      0.762300000000     0.189900000000     0.641100000000     0.0469232  
H        H      0.152000000000     0.468900000000     0.018900000000     0.0469232  
H        H      0.025100000000     0.582000000000     0.003600000000     0.0469232  
H        H      0.921800000000     0.614100000000     0.949100000000     0.0469232  
H        H      0.084700000000     0.674900000000     0.708000000000     0.0469232  
H        H      0.189900000000     0.641100000000     0.762300000000     0.0469232  
H        H      0.518900000000     0.968900000000     0.652000000000     0.0469232  
H        H      0.503600000000     0.082000000000     0.525100000000     0.0469232  
H        H      0.449100000000     0.114100000000     0.421800000000     0.0469232  
H        H      0.208000000000     0.174900000000     0.584700000000     0.0469232  
H        H      0.262300000000     0.141100000000     0.689900000000     0.0469232  
H        H      0.652000000000     0.518900000000     0.968900000000     0.0469232  
H        H      0.525100000000     0.503600000000     0.082000000000     0.0469232  
H        H      0.421800000000     0.449100000000     0.114100000000     0.0469232  
H        H      0.584700000000     0.208000000000     0.174900000000     0.0469232  
H        H      0.689900000000     0.262300000000     0.141100000000     0.0469232  
H        H      0.968900000000     0.652000000000     0.518900000000     0.0469232  
H        H      0.082000000000     0.525100000000     0.503600000000     0.0469232  
H        H      0.114100000000     0.421800000000     0.449100000000     0.0469232  
H        H      0.174900000000     0.584700000000     0.208000000000     0.0469232  
H        H      0.141100000000     0.689900000000     0.262300000000     0.0469232  
H        H      0.531100000000     0.981100000000     0.848000000000     0.0469232  
H        H      0.418000000000     0.996400000000     0.974900000000     0.0469232  
H        H      0.385900000000     0.050900000000     0.078200000000     0.0469232  
H        H      0.325100000000     0.292000000000     0.915300000000     0.0469232  
H        H      0.358900000000     0.237700000000     0.810100000000     0.0469232  
H        H      0.981100000000     0.848000000000     0.531100000000     0.0469232  
H        H      0.996400000000     0.974900000000     0.418000000000     0.0469232  
H        H      0.050900000000     0.078200000000     0.385900000000     0.0469232  
H        H      0.292000000000     0.915300000000     0.325100000000     0.0469232  
H        H      0.237700000000     0.810100000000     0.358900000000     0.0469232  
H        H      0.848000000000     0.531100000000     0.981100000000     0.0469232  
H        H      0.974900000000     0.418000000000     0.996400000000     0.0469232  
H        H      0.078200000000     0.385900000000     0.050900000000     0.0469232  
H        H      0.915300000000     0.325100000000     0.292000000000     0.0469232  
H        H      0.810100000000     0.358900000000     0.237700000000     0.0469232  
H        H      0.658050000000     0.841950000000     0.250000000000     0.0469232  
H        H      0.250000000000     0.658050000000     0.841950000000     0.0469232  
H        H      0.841950000000     0.250000000000     0.658050000000     0.0469232  
H        H      0.341950000000     0.158050000000     0.750000000000     0.0469232  
H        H      0.750000000000     0.341950000000     0.158050000000     0.0469232  
H        H      0.158050000000     0.750000000000     0.341950000000     0.0469232  
C        C      0.503710000000     0.003710000000     0.306910000000     0.0193136  
C        C      0.576940000000     0.931540000000     0.309240000000     0.0193136  
C        C      0.712570000000     0.838350000000     0.570910000000     0.0193136  
C        C      0.610390000000     0.894590000000     0.381890000000     0.0193136  
C        C      0.556500000000     0.900100000000     0.462100000000     0.0193136  
C        C      0.588940000000     0.880040000000     0.523940000000     0.0193136  
C        C      0.676020000000     0.851620000000     0.507520000000     0.0193136  
C        C      0.732090000000     0.844190000000     0.426990000000     0.0193136  
C        C      0.699870000000     0.864870000000     0.364370000000     0.0193136  
C        C      0.306910000000     0.503710000000     0.003710000000     0.0193136  
C        C      0.309240000000     0.576940000000     0.931540000000     0.0193136  
C        C      0.570910000000     0.712570000000     0.838350000000     0.0193136  
C        C      0.381890000000     0.610390000000     0.894590000000     0.0193136  
C        C      0.462100000000     0.556500000000     0.900100000000     0.0193136  
C        C      0.523940000000     0.588940000000     0.880040000000     0.0193136  
C        C      0.507520000000     0.676020000000     0.851620000000     0.0193136  
C        C      0.426990000000     0.732090000000     0.844190000000     0.0193136  
C        C      0.364370000000     0.699870000000     0.864870000000     0.0193136  
C        C      0.003710000000     0.306910000000     0.503710000000     0.0193136  
C        C      0.931540000000     0.309240000000     0.576940000000     0.0193136  
C        C      0.838350000000     0.570910000000     0.712570000000     0.0193136  
C        C      0.894590000000     0.381890000000     0.610390000000     0.0193136  
C        C      0.900100000000     0.462100000000     0.556500000000     0.0193136  
C        C      0.880040000000     0.523940000000     0.588940000000     0.0193136  
C        C      0.851620000000     0.507520000000     0.676020000000     0.0193136  
C        C      0.844190000000     0.426990000000     0.732090000000     0.0193136  
C        C      0.864870000000     0.364370000000     0.699870000000     0.0193136  
C        C      0.496290000000     0.996290000000     0.193090000000     0.0193136  
C        C      0.568460000000     0.923060000000     0.190760000000     0.0193136  
C        C      0.661650000000     0.787430000000     0.929090000000     0.0193136  
C        C      0.605410000000     0.889610000000     0.118110000000     0.0193136  
C        C      0.599900000000     0.943500000000     0.037900000000     0.0193136  
C        C      0.619960000000     0.911060000000     0.976060000000     0.0193136  
C        C      0.648380000000     0.823980000000     0.992480000000     0.0193136  
C        C      0.655810000000     0.767910000000     0.073010000000     0.0193136  
C        C      0.635130000000     0.800130000000     0.135630000000     0.0193136  
C        C      0.996290000000     0.193090000000     0.496290000000     0.0193136  
C        C      0.923060000000     0.190760000000     0.568460000000     0.0193136  
C        C      0.787430000000     0.929090000000     0.661650000000     0.0193136  
C        C      0.889610000000     0.118110000000     0.605410000000     0.0193136  
C        C      0.943500000000     0.037900000000     0.599900000000     0.0193136  
C        C      0.911060000000     0.976060000000     0.619960000000     0.0193136  
C        C      0.823980000000     0.992480000000     0.648380000000     0.0193136  
C        C      0.767910000000     0.073010000000     0.655810000000     0.0193136  
C        C      0.800130000000     0.135630000000     0.635130000000     0.0193136  
C        C      0.193090000000     0.496290000000     0.996290000000     0.0193136  
C        C      0.190760000000     0.568460000000     0.923060000000     0.0193136  
C        C      0.929090000000     0.661650000000     0.787430000000     0.0193136  
C        C      0.118110000000     0.605410000000     0.889610000000     0.0193136  
C        C      0.037900000000     0.599900000000     0.943500000000     0.0193136  
C        C      0.976060000000     0.619960000000     0.911060000000     0.0193136  
C        C      0.992480000000     0.648380000000     0.823980000000     0.0193136  
C        C      0.073010000000     0.655810000000     0.767910000000     0.0193136  
C        C      0.135630000000     0.635130000000     0.800130000000     0.0193136  
C        C      0.496290000000     0.996290000000     0.693090000000     0.0193136  
C        C      0.423060000000     0.068460000000     0.690760000000     0.0193136  
C        C      0.287430000000     0.161650000000     0.429090000000     0.0193136  
C        C      0.389610000000     0.105410000000     0.618110000000     0.0193136  
C        C      0.443500000000     0.099900000000     0.537900000000     0.0193136  
C        C      0.411060000000     0.119960000000     0.476060000000     0.0193136  
C        C      0.323980000000     0.148380000000     0.492480000000     0.0193136  
C        C      0.267910000000     0.155810000000     0.573010000000     0.0193136  
C        C      0.300130000000     0.135130000000     0.635630000000     0.0193136  
C        C      0.693090000000     0.496290000000     0.996290000000     0.0193136  
C        C      0.690760000000     0.423060000000     0.068460000000     0.0193136  
C        C      0.429090000000     0.287430000000     0.161650000000     0.0193136  
C        C      0.618110000000     0.389610000000     0.105410000000     0.0193136  
C        C      0.537900000000     0.443500000000     0.099900000000     0.0193136  
C        C      0.476060000000     0.411060000000     0.119960000000     0.0193136  
C        C      0.492480000000     0.323980000000     0.148380000000     0.0193136  
C        C      0.573010000000     0.267910000000     0.155810000000     0.0193136  
C        C      0.635630000000     0.300130000000     0.135130000000     0.0193136  
C        C      0.996290000000     0.693090000000     0.496290000000     0.0193136  
C        C      0.068460000000     0.690760000000     0.423060000000     0.0193136  
C        C      0.161650000000     0.429090000000     0.287430000000     0.0193136  
C        C      0.105410000000     0.618110000000     0.389610000000     0.0193136  
C        C      0.099900000000     0.537900000000     0.443500000000     0.0193136  
C        C      0.119960000000     0.476060000000     0.411060000000     0.0193136  
C        C      0.148380000000     0.492480000000     0.323980000000     0.0193136  
C        C      0.155810000000     0.573010000000     0.267910000000     0.0193136  
C        C      0.135130000000     0.635630000000     0.300130000000     0.0193136  
C        C      0.503710000000     0.003710000000     0.806910000000     0.0193136  
C        C      0.431540000000     0.076940000000     0.809240000000     0.0193136  
C        C      0.338350000000     0.212570000000     0.070910000000     0.0193136  
C        C      0.394590000000     0.110390000000     0.881890000000     0.0193136  
C        C      0.400100000000     0.056500000000     0.962100000000     0.0193136  
C        C      0.380040000000     0.088940000000     0.023940000000     0.0193136  
C        C      0.351620000000     0.176020000000     0.007520000000     0.0193136  
C        C      0.344190000000     0.232090000000     0.926990000000     0.0193136  
C        C      0.364870000000     0.199870000000     0.864370000000     0.0193136  
C        C      0.003710000000     0.806910000000     0.503710000000     0.0193136  
C        C      0.076940000000     0.809240000000     0.431540000000     0.0193136  
C        C      0.212570000000     0.070910000000     0.338350000000     0.0193136  
C        C      0.110390000000     0.881890000000     0.394590000000     0.0193136  
C        C      0.056500000000     0.962100000000     0.400100000000     0.0193136  
C        C      0.088940000000     0.023940000000     0.380040000000     0.0193136  
C        C      0.176020000000     0.007520000000     0.351620000000     0.0193136  
C        C      0.232090000000     0.926990000000     0.344190000000     0.0193136  
C        C      0.199870000000     0.864370000000     0.364870000000     0.0193136  
C        C      0.806910000000     0.503710000000     0.003710000000     0.0193136  
C        C      0.809240000000     0.431540000000     0.076940000000     0.0193136  
C        C      0.070910000000     0.338350000000     0.212570000000     0.0193136  
C        C      0.881890000000     0.394590000000     0.110390000000     0.0193136  
C        C      0.962100000000     0.400100000000     0.056500000000     0.0193136  
C        C      0.023940000000     0.380040000000     0.088940000000     0.0193136  
C        C      0.007520000000     0.351620000000     0.176020000000     0.0193136  
C        C      0.926990000000     0.344190000000     0.232090000000     0.0193136  
C        C      0.864370000000     0.364870000000     0.199870000000     0.0193136  
C        C      0.608750000000     0.891250000000     0.250000000000     0.0193136  
C        C      0.250000000000     0.608750000000     0.891250000000     0.0193136  
C        C      0.891250000000     0.250000000000     0.608750000000     0.0193136  
C        C      0.391250000000     0.108750000000     0.750000000000     0.0193136  
C        C      0.750000000000     0.391250000000     0.108750000000     0.0193136  
C        C      0.108750000000     0.750000000000     0.391250000000     0.0193136  
N        N      0.463750000000     0.036250000000     0.250000000000    -0.161937   
N        N      0.250000000000     0.463750000000     0.036250000000    -0.161937   
N        N      0.036250000000     0.250000000000     0.463750000000    -0.161937   
N        N      0.536250000000     0.963750000000     0.750000000000    -0.161937   
N        N      0.750000000000     0.536250000000     0.963750000000    -0.161937   
N        N      0.963750000000     0.750000000000     0.536250000000    -0.161937   
O        O      0.662040000000     0.874960000000     0.626770000000    -0.387294   
O        O      0.786930000000     0.786970000000     0.568480000000    -0.387294   
O        O      0.626770000000     0.662040000000     0.874960000000    -0.387294   
O        O      0.568480000000     0.786930000000     0.786970000000    -0.387294   
O        O      0.874960000000     0.626770000000     0.662040000000    -0.387294   
O        O      0.786970000000     0.568480000000     0.786930000000    -0.387294   
O        O      0.625040000000     0.837960000000     0.873230000000    -0.387294   
O        O      0.713030000000     0.713070000000     0.931520000000    -0.387294   
O        O      0.837960000000     0.873230000000     0.625040000000    -0.387294   
O        O      0.713070000000     0.931520000000     0.713030000000    -0.387294   
O        O      0.873230000000     0.625040000000     0.837960000000    -0.387294   
O        O      0.931520000000     0.713030000000     0.713070000000    -0.387294   
O        O      0.337960000000     0.125040000000     0.373230000000    -0.387294   
O        O      0.213070000000     0.213030000000     0.431520000000    -0.387294   
O        O      0.373230000000     0.337960000000     0.125040000000    -0.387294   
O        O      0.431520000000     0.213070000000     0.213030000000    -0.387294   
O        O      0.125040000000     0.373230000000     0.337960000000    -0.387294   
O        O      0.213030000000     0.431520000000     0.213070000000    -0.387294   
O        O      0.374960000000     0.162040000000     0.126770000000    -0.387294   
O        O      0.286970000000     0.286930000000     0.068480000000    -0.387294   
O        O      0.162040000000     0.126770000000     0.374960000000    -0.387294   
O        O      0.286930000000     0.068480000000     0.286970000000    -0.387294   
O        O      0.126770000000     0.374960000000     0.162040000000    -0.387294   
O        O      0.068480000000     0.286970000000     0.286930000000    -0.387294   
O        O      0.250000000000     0.250000000000     0.250000000000    -0.387294   
O        O      0.750000000000     0.750000000000     0.750000000000    -0.387294   


