data_VUSKEA_original

_audit_creation_method RASPA-1.0
_audit_creation_date 2022-1-29
_audit_author_name 'Felipe Lopes de Oliveira <felipe.lopes.oliveira@ibm.com>'

_cell_length_a    18.2519
_cell_length_b    18.2519
_cell_length_c    18.252
_cell_angle_alpha 60.0037
_cell_angle_beta  60.0037
_cell_angle_gamma 60.0005
_cell_volume      4299.69

_symmetry_cell_setting          triclinic
_symmetry_space_group_name_Hall 'P 1'
_symmetry_space_group_name_H-M  'P 1'
_symmetry_Int_Tables_number     1

_symmetry_equiv_pos_as_xyz 'x,y,z'

loop_
_atom_site_label
_atom_site_type_symbol
_atom_site_fract_x
_atom_site_fract_y
_atom_site_fract_z
_atom_site_charge
Zn       Zn     0.881270000000     0.706390000000     0.206240000000     0.461495   
Zn       Zn     0.293610000000     0.118730000000     0.793760000000     0.461495   
Zn       Zn     0.118730000000     0.293610000000     0.793760000000     0.461495   
Zn       Zn     0.706390000000     0.881270000000     0.206240000000     0.461495   
Zn       Zn     0.706060000000     0.706060000000     0.381330000000     0.461495   
Zn       Zn     0.706240000000     0.706240000000     0.206140000000     0.461495   
Zn       Zn     0.293940000000     0.293940000000     0.618670000000     0.461495   
Zn       Zn     0.293760000000     0.293760000000     0.793860000000     0.461495   
H        H      0.546300000000     0.060900000000     0.349800000000     0.0646484  
H        H      0.543100000000     0.846100000000     0.561500000000     0.0646484  
H        H      0.547200000000     0.059800000000     0.046100000000     0.0646484  
H        H      0.543200000000     0.848600000000     0.043800000000     0.0646484  
H        H      0.062600000000     0.846600000000     0.048600000000     0.0646484  
H        H      0.939100000000     0.453700000000     0.650200000000     0.0646484  
H        H      0.153900000000     0.456900000000     0.438500000000     0.0646484  
H        H      0.940200000000     0.452800000000     0.953900000000     0.0646484  
H        H      0.151400000000     0.456800000000     0.956200000000     0.0646484  
H        H      0.153400000000     0.937400000000     0.951400000000     0.0646484  
H        H      0.453700000000     0.939100000000     0.650200000000     0.0646484  
H        H      0.456900000000     0.153900000000     0.438500000000     0.0646484  
H        H      0.452800000000     0.940200000000     0.953900000000     0.0646484  
H        H      0.456800000000     0.151400000000     0.956200000000     0.0646484  
H        H      0.937400000000     0.153400000000     0.951400000000     0.0646484  
H        H      0.060900000000     0.546300000000     0.349800000000     0.0646484  
H        H      0.846100000000     0.543100000000     0.561500000000     0.0646484  
H        H      0.059800000000     0.547200000000     0.046100000000     0.0646484  
H        H      0.848600000000     0.543200000000     0.043800000000     0.0646484  
H        H      0.846600000000     0.062600000000     0.048600000000     0.0646484  
H        H      0.544400000000     0.544400000000     0.347700000000     0.0646484  
H        H      0.543300000000     0.543300000000     0.563800000000     0.0646484  
H        H      0.455600000000     0.455600000000     0.652300000000     0.0646484  
H        H      0.456700000000     0.456700000000     0.436200000000     0.0646484  
C        C      0.612200000000     0.889800000000     0.386200000000     0.053251   
C        C      0.552500000000     0.947900000000     0.447400000000     0.053251   
C        C      0.527600000000     0.035200000000     0.412000000000     0.053251   
C        C      0.526400000000     0.908200000000     0.535500000000     0.053251   
C        C      0.613400000000     0.886600000000     0.109100000000     0.053251   
C        C      0.556100000000     0.945100000000     0.053800000000     0.053251   
C        C      0.529200000000     0.033600000000     0.028100000000     0.053251   
C        C      0.526400000000     0.910600000000     0.026300000000     0.053251   
C        C      0.036500000000     0.908700000000     0.028500000000     0.053251   
C        C      0.110200000000     0.387800000000     0.613800000000     0.053251   
C        C      0.052100000000     0.447500000000     0.552600000000     0.053251   
C        C      0.964800000000     0.472400000000     0.588000000000     0.053251   
C        C      0.091800000000     0.473600000000     0.464500000000     0.053251   
C        C      0.113400000000     0.386600000000     0.890900000000     0.053251   
C        C      0.054900000000     0.443900000000     0.946200000000     0.053251   
C        C      0.966400000000     0.470800000000     0.971900000000     0.053251   
C        C      0.089400000000     0.473600000000     0.973700000000     0.053251   
C        C      0.091300000000     0.963500000000     0.971500000000     0.053251   
C        C      0.387800000000     0.110200000000     0.613800000000     0.053251   
C        C      0.447500000000     0.052100000000     0.552600000000     0.053251   
C        C      0.472400000000     0.964800000000     0.588000000000     0.053251   
C        C      0.473600000000     0.091800000000     0.464500000000     0.053251   
C        C      0.386600000000     0.113400000000     0.890900000000     0.053251   
C        C      0.443900000000     0.054900000000     0.946200000000     0.053251   
C        C      0.470800000000     0.966400000000     0.971900000000     0.053251   
C        C      0.473600000000     0.089400000000     0.973700000000     0.053251   
C        C      0.963500000000     0.091300000000     0.971500000000     0.053251   
C        C      0.889800000000     0.612200000000     0.386200000000     0.053251   
C        C      0.947900000000     0.552500000000     0.447400000000     0.053251   
C        C      0.035200000000     0.527600000000     0.412000000000     0.053251   
C        C      0.908200000000     0.526400000000     0.535500000000     0.053251   
C        C      0.886600000000     0.613400000000     0.109100000000     0.053251   
C        C      0.945100000000     0.556100000000     0.053800000000     0.053251   
C        C      0.033600000000     0.529200000000     0.028100000000     0.053251   
C        C      0.910600000000     0.526400000000     0.026300000000     0.053251   
C        C      0.908700000000     0.036500000000     0.028500000000     0.053251   
C        C      0.611400000000     0.611400000000     0.393000000000     0.053251   
C        C      0.554200000000     0.554200000000     0.445200000000     0.053251   
C        C      0.527000000000     0.527000000000     0.409700000000     0.053251   
C        C      0.525800000000     0.525800000000     0.536700000000     0.053251   
C        C      0.884800000000     0.884800000000     0.117100000000     0.053251   
C        C      0.946500000000     0.946500000000     0.053700000000     0.053251   
C        C      0.388600000000     0.388600000000     0.607000000000     0.053251   
C        C      0.445800000000     0.445800000000     0.554800000000     0.053251   
C        C      0.473000000000     0.473000000000     0.590300000000     0.053251   
C        C      0.474200000000     0.474200000000     0.463300000000     0.053251   
C        C      0.115200000000     0.115200000000     0.882900000000     0.053251   
C        C      0.053500000000     0.053500000000     0.946300000000     0.053251   
O        O      0.631600000000     0.804400000000     0.432100000000    -0.299984   
O        O      0.633700000000     0.933700000000     0.302000000000    -0.299984   
O        O      0.630200000000     0.803400000000     0.135600000000    -0.299984   
O        O      0.633100000000     0.930700000000     0.131600000000    -0.299984   
O        O      0.930800000000     0.802400000000     0.134400000000    -0.299984   
O        O      0.195600000000     0.368400000000     0.567900000000    -0.299984   
O        O      0.066300000000     0.366300000000     0.698000000000    -0.299984   
O        O      0.196600000000     0.369800000000     0.864400000000    -0.299984   
O        O      0.069300000000     0.366900000000     0.868400000000    -0.299984   
O        O      0.197600000000     0.069200000000     0.865600000000    -0.299984   
O        O      0.368400000000     0.195600000000     0.567900000000    -0.299984   
O        O      0.366300000000     0.066300000000     0.698000000000    -0.299984   
O        O      0.369800000000     0.196600000000     0.864400000000    -0.299984   
O        O      0.366900000000     0.069300000000     0.868400000000    -0.299984   
O        O      0.069200000000     0.197600000000     0.865600000000    -0.299984   
O        O      0.804400000000     0.631600000000     0.432100000000    -0.299984   
O        O      0.933700000000     0.633700000000     0.302000000000    -0.299984   
O        O      0.803400000000     0.630200000000     0.135600000000    -0.299984   
O        O      0.930700000000     0.633100000000     0.131600000000    -0.299984   
O        O      0.802400000000     0.930800000000     0.134400000000    -0.299984   
O        O      0.750200000000     0.750200000000     0.250300000000    -0.299984   
O        O      0.632600000000     0.632600000000     0.431400000000    -0.299984   
O        O      0.630300000000     0.630300000000     0.310000000000    -0.299984   
O        O      0.249800000000     0.249800000000     0.749700000000    -0.299984   
O        O      0.367400000000     0.367400000000     0.568600000000    -0.299984   
O        O      0.369700000000     0.369700000000     0.690000000000    -0.299984   


