data_WAFKAQ_original

_audit_creation_method RASPA-1.0
_audit_creation_date 2022-1-28
_audit_author_name 'Felipe Lopes de Oliveira <felipe.lopes.oliveira@ibm.com>'

_cell_length_a    14.3547
_cell_length_b    14.3547
_cell_length_c    14.3547
_cell_angle_alpha 95.8032
_cell_angle_beta  116.708
_cell_angle_gamma 116.708
_cell_volume      2183.49

_symmetry_cell_setting          triclinic
_symmetry_space_group_name_Hall 'P 1'
_symmetry_space_group_name_H-M  'P 1'
_symmetry_Int_Tables_number     1

_symmetry_equiv_pos_as_xyz 'x,y,z'

loop_
_atom_site_label
_atom_site_type_symbol
_atom_site_fract_x
_atom_site_fract_y
_atom_site_fract_z
_atom_site_charge
Zn       Zn     0.000000000000     0.423310000000     0.423310000000     0.455374   
Zn       Zn     0.000000000000     0.076690000000     0.076690000000     0.455374   
Zn       Zn     0.000000000000     0.576690000000     0.576690000000     0.455374   
Zn       Zn     0.000000000000     0.923310000000     0.923310000000     0.455374   
H        H      0.093200000000     0.246600000000     0.637400000000     0.0622364  
H        H      0.073000000000     0.425000000000     0.258000000000     0.0622364  
H        H      0.917000000000     0.331000000000     0.182000000000     0.0622364  
H        H      0.906800000000     0.544200000000     0.153400000000     0.0622364  
H        H      0.927000000000     0.185000000000     0.352000000000     0.0622364  
H        H      0.083000000000     0.265000000000     0.414000000000     0.0622364  
H        H      0.609200000000     0.153400000000     0.246600000000     0.0622364  
H        H      0.167000000000     0.352000000000     0.425000000000     0.0622364  
H        H      0.149000000000     0.414000000000     0.331000000000     0.0622364  
H        H      0.390800000000     0.637400000000     0.544200000000     0.0622364  
H        H      0.833000000000     0.258000000000     0.185000000000     0.0622364  
H        H      0.851000000000     0.182000000000     0.265000000000     0.0622364  
H        H      0.609200000000     0.955800000000     0.862600000000     0.0622364  
H        H      0.167000000000     0.315000000000     0.242000000000     0.0622364  
H        H      0.149000000000     0.235000000000     0.318000000000     0.0622364  
H        H      0.390800000000     0.253400000000     0.346600000000     0.0622364  
H        H      0.833000000000     0.075000000000     0.148000000000     0.0622364  
H        H      0.851000000000     0.169000000000     0.086000000000     0.0622364  
H        H      0.906800000000     0.862600000000     0.253400000000     0.0622364  
H        H      0.927000000000     0.242000000000     0.075000000000     0.0622364  
H        H      0.083000000000     0.318000000000     0.169000000000     0.0622364  
H        H      0.093200000000     0.346600000000     0.955800000000     0.0622364  
H        H      0.073000000000     0.148000000000     0.315000000000     0.0622364  
H        H      0.917000000000     0.086000000000     0.235000000000     0.0622364  
H        H      0.906800000000     0.753400000000     0.362600000000     0.0622364  
H        H      0.927000000000     0.575000000000     0.742000000000     0.0622364  
H        H      0.083000000000     0.669000000000     0.818000000000     0.0622364  
H        H      0.093200000000     0.455800000000     0.846600000000     0.0622364  
H        H      0.073000000000     0.815000000000     0.648000000000     0.0622364  
H        H      0.917000000000     0.735000000000     0.586000000000     0.0622364  
H        H      0.390800000000     0.846600000000     0.753400000000     0.0622364  
H        H      0.833000000000     0.648000000000     0.575000000000     0.0622364  
H        H      0.851000000000     0.586000000000     0.669000000000     0.0622364  
H        H      0.609200000000     0.362600000000     0.455800000000     0.0622364  
H        H      0.167000000000     0.742000000000     0.815000000000     0.0622364  
H        H      0.149000000000     0.818000000000     0.735000000000     0.0622364  
H        H      0.390800000000     0.044200000000     0.137400000000     0.0622364  
H        H      0.833000000000     0.685000000000     0.758000000000     0.0622364  
H        H      0.851000000000     0.765000000000     0.682000000000     0.0622364  
H        H      0.609200000000     0.746600000000     0.653400000000     0.0622364  
H        H      0.167000000000     0.925000000000     0.852000000000     0.0622364  
H        H      0.149000000000     0.831000000000     0.914000000000     0.0622364  
H        H      0.093200000000     0.137400000000     0.746600000000     0.0622364  
H        H      0.073000000000     0.758000000000     0.925000000000     0.0622364  
H        H      0.917000000000     0.682000000000     0.831000000000     0.0622364  
H        H      0.906800000000     0.653400000000     0.044200000000     0.0622364  
H        H      0.927000000000     0.852000000000     0.685000000000     0.0622364  
H        H      0.083000000000     0.914000000000     0.765000000000     0.0622364  
C        C      0.091020000000     0.265800000000     0.700600000000     0.00678918 
C        C      0.028500000000     0.366900000000     0.244400000000     0.00678918 
C        C      0.908980000000     0.609580000000     0.174780000000     0.00678918 
C        C      0.971500000000     0.215900000000     0.338400000000     0.00678918 
C        C      0.565200000000     0.174780000000     0.265800000000     0.00678918 
C        C      0.122500000000     0.338400000000     0.366900000000     0.00678918 
C        C      0.434800000000     0.700600000000     0.609580000000     0.00678918 
C        C      0.877500000000     0.244400000000     0.215900000000     0.00678918 
C        C      0.565200000000     0.890420000000     0.799400000000     0.00678918 
C        C      0.122500000000     0.284100000000     0.255600000000     0.00678918 
C        C      0.434800000000     0.234200000000     0.325220000000     0.00678918 
C        C      0.877500000000     0.133100000000     0.161600000000     0.00678918 
C        C      0.908980000000     0.799400000000     0.234200000000     0.00678918 
C        C      0.971500000000     0.255600000000     0.133100000000     0.00678918 
C        C      0.091020000000     0.325220000000     0.890420000000     0.00678918 
C        C      0.028500000000     0.161600000000     0.284100000000     0.00678918 
C        C      0.908980000000     0.734200000000     0.299400000000     0.00678918 
C        C      0.971500000000     0.633100000000     0.755600000000     0.00678918 
C        C      0.091020000000     0.390420000000     0.825220000000     0.00678918 
C        C      0.028500000000     0.784100000000     0.661600000000     0.00678918 
C        C      0.434800000000     0.825220000000     0.734200000000     0.00678918 
C        C      0.877500000000     0.661600000000     0.633100000000     0.00678918 
C        C      0.565200000000     0.299400000000     0.390420000000     0.00678918 
C        C      0.122500000000     0.755600000000     0.784100000000     0.00678918 
C        C      0.434800000000     0.109580000000     0.200600000000     0.00678918 
C        C      0.877500000000     0.715900000000     0.744400000000     0.00678918 
C        C      0.565200000000     0.765800000000     0.674780000000     0.00678918 
C        C      0.122500000000     0.866900000000     0.838400000000     0.00678918 
C        C      0.091020000000     0.200600000000     0.765800000000     0.00678918 
C        C      0.028500000000     0.744400000000     0.866900000000     0.00678918 
C        C      0.908980000000     0.674780000000     0.109580000000     0.00678918 
C        C      0.971500000000     0.838400000000     0.715900000000     0.00678918 
C        C      0.087810000000     0.359120000000     0.728690000000     0.00678918 
C        C      0.071680000000     0.421220000000     0.650460000000     0.00678918 
C        C      0.912190000000     0.640880000000     0.271310000000     0.00678918 
C        C      0.928320000000     0.578780000000     0.349540000000     0.00678918 
C        C      0.630430000000     0.271310000000     0.359120000000     0.00678918 
C        C      0.770760000000     0.349540000000     0.421220000000     0.00678918 
C        C      0.369570000000     0.728690000000     0.640880000000     0.00678918 
C        C      0.229240000000     0.650460000000     0.578780000000     0.00678918 
C        C      0.630430000000     0.859120000000     0.771310000000     0.00678918 
C        C      0.770760000000     0.921220000000     0.849540000000     0.00678918 
C        C      0.369570000000     0.140880000000     0.228690000000     0.00678918 
C        C      0.229240000000     0.078780000000     0.150460000000     0.00678918 
C        C      0.912190000000     0.771310000000     0.140880000000     0.00678918 
C        C      0.928320000000     0.849540000000     0.078780000000     0.00678918 
C        C      0.087810000000     0.228690000000     0.859120000000     0.00678918 
C        C      0.071680000000     0.150460000000     0.921220000000     0.00678918 
N        N      0.000000000000     0.317110000000     0.317110000000    -0.0830843  
N        N      0.000000000000     0.182890000000     0.182890000000    -0.0830843  
N        N      0.000000000000     0.682890000000     0.682890000000    -0.0830843  
N        N      0.000000000000     0.817110000000     0.817110000000    -0.0830843  
O        O      0.064770000000     0.386740000000     0.562790000000    -0.300149   
O        O      0.935230000000     0.498020000000     0.321970000000    -0.300149   
O        O      0.823950000000     0.321970000000     0.386740000000    -0.300149   
O        O      0.176050000000     0.562790000000     0.498020000000    -0.300149   
O        O      0.823950000000     0.001980000000     0.937210000000    -0.300149   
O        O      0.176050000000     0.113260000000     0.178030000000    -0.300149   
O        O      0.935230000000     0.937210000000     0.113260000000    -0.300149   
O        O      0.064770000000     0.178030000000     0.001980000000    -0.300149   
O        O      0.935230000000     0.613260000000     0.437210000000    -0.300149   
O        O      0.064770000000     0.501980000000     0.678030000000    -0.300149   
O        O      0.176050000000     0.678030000000     0.613260000000    -0.300149   
O        O      0.823950000000     0.437210000000     0.501980000000    -0.300149   
O        O      0.176050000000     0.998020000000     0.062790000000    -0.300149   
O        O      0.823950000000     0.886740000000     0.821970000000    -0.300149   
O        O      0.064770000000     0.062790000000     0.886740000000    -0.300149   
O        O      0.935230000000     0.821970000000     0.998020000000    -0.300149   


