data_WALBOC01_original

_audit_creation_method RASPA-1.0
_audit_creation_date 2022-1-31
_audit_author_name 'Felipe Lopes de Oliveira <felipe.lopes.oliveira@ibm.com>'

_cell_length_a    12.9639
_cell_length_b    13.8034
_cell_length_c    16.8318
_cell_angle_alpha 90
_cell_angle_beta  90
_cell_angle_gamma 90
_cell_volume      3011.98

_symmetry_cell_setting          triclinic
_symmetry_space_group_name_Hall 'P 1'
_symmetry_space_group_name_H-M  'P 1'
_symmetry_Int_Tables_number     1

_symmetry_equiv_pos_as_xyz 'x,y,z'

loop_
_atom_site_label
_atom_site_type_symbol
_atom_site_fract_x
_atom_site_fract_y
_atom_site_fract_z
_atom_site_charge
Zn       Zn     0.976140000000     0.407410000000     0.576030000000     0.3921     
Zn       Zn     0.926410000000     0.478010000000     0.903850000000     0.3921     
Zn       Zn     0.023860000000     0.092590000000     0.076030000000     0.3921     
Zn       Zn     0.073590000000     0.021990000000     0.403850000000     0.3921     
Zn       Zn     0.476140000000     0.592590000000     0.923970000000     0.3921     
Zn       Zn     0.426410000000     0.521990000000     0.596150000000     0.3921     
Zn       Zn     0.523860000000     0.907410000000     0.423970000000     0.3921     
Zn       Zn     0.573590000000     0.978010000000     0.096150000000     0.3921     
Zn       Zn     0.023860000000     0.592590000000     0.423970000000     0.3921     
Zn       Zn     0.073590000000     0.521990000000     0.096150000000     0.3921     
Zn       Zn     0.976140000000     0.907410000000     0.923970000000     0.3921     
Zn       Zn     0.926410000000     0.978010000000     0.596150000000     0.3921     
Zn       Zn     0.523860000000     0.407410000000     0.076030000000     0.3921     
Zn       Zn     0.573590000000     0.478010000000     0.403850000000     0.3921     
Zn       Zn     0.476140000000     0.092590000000     0.576030000000     0.3921     
Zn       Zn     0.426410000000     0.021990000000     0.903850000000     0.3921     
H        H      0.950000000000     0.192000000000     0.644600000000     0.115449   
H        H      0.751000000000     0.354000000000     0.503400000000     0.115449   
H        H      0.061000000000     0.243000000000     0.369000000000     0.115449   
H        H      0.058000000000     0.330000000000     0.410500000000     0.115449   
H        H      0.726000000000     0.618000000000     0.324000000000     0.115449   
H        H      0.838000000000     0.660000000000     0.346000000000     0.115449   
H        H      0.050000000000     0.308000000000     0.144600000000     0.115449   
H        H      0.249000000000     0.146000000000     0.003400000000     0.115449   
H        H      0.939000000000     0.257000000000     0.869000000000     0.115449   
H        H      0.942000000000     0.170000000000     0.910500000000     0.115449   
H        H      0.274000000000     0.882000000000     0.824000000000     0.115449   
H        H      0.162000000000     0.840000000000     0.846000000000     0.115449   
H        H      0.450000000000     0.808000000000     0.855400000000     0.115449   
H        H      0.251000000000     0.646000000000     0.996600000000     0.115449   
H        H      0.561000000000     0.757000000000     0.131000000000     0.115449   
H        H      0.558000000000     0.670000000000     0.089500000000     0.115449   
H        H      0.226000000000     0.382000000000     0.176000000000     0.115449   
H        H      0.338000000000     0.340000000000     0.154000000000     0.115449   
H        H      0.550000000000     0.692000000000     0.355400000000     0.115449   
H        H      0.749000000000     0.854000000000     0.496600000000     0.115449   
H        H      0.439000000000     0.743000000000     0.631000000000     0.115449   
H        H      0.442000000000     0.830000000000     0.589500000000     0.115449   
H        H      0.774000000000     0.118000000000     0.676000000000     0.115449   
H        H      0.662000000000     0.160000000000     0.654000000000     0.115449   
H        H      0.050000000000     0.808000000000     0.355400000000     0.115449   
H        H      0.249000000000     0.646000000000     0.496600000000     0.115449   
H        H      0.939000000000     0.757000000000     0.631000000000     0.115449   
H        H      0.942000000000     0.670000000000     0.589500000000     0.115449   
H        H      0.274000000000     0.382000000000     0.676000000000     0.115449   
H        H      0.162000000000     0.340000000000     0.654000000000     0.115449   
H        H      0.950000000000     0.692000000000     0.855400000000     0.115449   
H        H      0.751000000000     0.854000000000     0.996600000000     0.115449   
H        H      0.061000000000     0.743000000000     0.131000000000     0.115449   
H        H      0.058000000000     0.830000000000     0.089500000000     0.115449   
H        H      0.726000000000     0.118000000000     0.176000000000     0.115449   
H        H      0.838000000000     0.160000000000     0.154000000000     0.115449   
H        H      0.550000000000     0.192000000000     0.144600000000     0.115449   
H        H      0.749000000000     0.354000000000     0.003400000000     0.115449   
H        H      0.439000000000     0.243000000000     0.869000000000     0.115449   
H        H      0.442000000000     0.330000000000     0.910500000000     0.115449   
H        H      0.774000000000     0.618000000000     0.824000000000     0.115449   
H        H      0.662000000000     0.660000000000     0.846000000000     0.115449   
H        H      0.450000000000     0.308000000000     0.644600000000     0.115449   
H        H      0.251000000000     0.146000000000     0.503400000000     0.115449   
H        H      0.561000000000     0.257000000000     0.369000000000     0.115449   
H        H      0.558000000000     0.170000000000     0.410500000000     0.115449   
H        H      0.226000000000     0.882000000000     0.324000000000     0.115449   
H        H      0.338000000000     0.840000000000     0.346000000000     0.115449   
C        C      0.972200000000     0.409720000000     0.746060000000     0.187442   
C        C      0.922700000000     0.506990000000     0.722520000000     0.187442   
C        C      0.027900000000     0.220360000000     0.479930000000     0.187442   
C        C      0.971100000000     0.188200000000     0.594130000000     0.187442   
C        C      0.797900000000     0.547910000000     0.410630000000     0.187442   
C        C      0.777900000000     0.418950000000     0.476970000000     0.187442   
C        C      0.027800000000     0.090280000000     0.246060000000     0.187442   
C        C      0.077300000000     0.993010000000     0.222520000000     0.187442   
C        C      0.972100000000     0.279640000000     0.979930000000     0.187442   
C        C      0.028900000000     0.311800000000     0.094130000000     0.187442   
C        C      0.202100000000     0.952090000000     0.910630000000     0.187442   
C        C      0.222100000000     0.081050000000     0.976970000000     0.187442   
C        C      0.472200000000     0.590280000000     0.753940000000     0.187442   
C        C      0.422700000000     0.493010000000     0.777480000000     0.187442   
C        C      0.527900000000     0.779640000000     0.020070000000     0.187442   
C        C      0.471100000000     0.811800000000     0.905870000000     0.187442   
C        C      0.297900000000     0.452090000000     0.089370000000     0.187442   
C        C      0.277900000000     0.581050000000     0.023030000000     0.187442   
C        C      0.527800000000     0.909720000000     0.253940000000     0.187442   
C        C      0.577300000000     0.006990000000     0.277480000000     0.187442   
C        C      0.472100000000     0.720360000000     0.520070000000     0.187442   
C        C      0.528900000000     0.688200000000     0.405870000000     0.187442   
C        C      0.702100000000     0.047910000000     0.589370000000     0.187442   
C        C      0.722100000000     0.918950000000     0.523030000000     0.187442   
C        C      0.027800000000     0.590280000000     0.253940000000     0.187442   
C        C      0.077300000000     0.493010000000     0.277480000000     0.187442   
C        C      0.972100000000     0.779640000000     0.520070000000     0.187442   
C        C      0.028900000000     0.811800000000     0.405870000000     0.187442   
C        C      0.202100000000     0.452090000000     0.589370000000     0.187442   
C        C      0.222100000000     0.581050000000     0.523030000000     0.187442   
C        C      0.972200000000     0.909720000000     0.753940000000     0.187442   
C        C      0.922700000000     0.006990000000     0.777480000000     0.187442   
C        C      0.027900000000     0.720360000000     0.020070000000     0.187442   
C        C      0.971100000000     0.688200000000     0.905870000000     0.187442   
C        C      0.797900000000     0.047910000000     0.089370000000     0.187442   
C        C      0.777900000000     0.918950000000     0.023030000000     0.187442   
C        C      0.527800000000     0.409720000000     0.246060000000     0.187442   
C        C      0.577300000000     0.506990000000     0.222520000000     0.187442   
C        C      0.472100000000     0.220360000000     0.979930000000     0.187442   
C        C      0.528900000000     0.188200000000     0.094130000000     0.187442   
C        C      0.702100000000     0.547910000000     0.910630000000     0.187442   
C        C      0.722100000000     0.418950000000     0.976970000000     0.187442   
C        C      0.472200000000     0.090280000000     0.746060000000     0.187442   
C        C      0.422700000000     0.993010000000     0.722520000000     0.187442   
C        C      0.527900000000     0.279640000000     0.479930000000     0.187442   
C        C      0.471100000000     0.311800000000     0.594130000000     0.187442   
C        C      0.297900000000     0.952090000000     0.410630000000     0.187442   
C        C      0.277900000000     0.081050000000     0.476970000000     0.187442   
N        N      0.995020000000     0.263410000000     0.547150000000    -0.193518   
N        N      0.987060000000     0.104050000000     0.560520000000    -0.193518   
N        N      0.024960000000     0.123950000000     0.485030000000    -0.193518   
N        N      0.066500000000     0.269110000000     0.416640000000    -0.193518   
N        N      0.872910000000     0.446630000000     0.490930000000    -0.193518   
N        N      0.886790000000     0.531650000000     0.447740000000    -0.193518   
N        N      0.726580000000     0.478590000000     0.427130000000    -0.193518   
N        N      0.779000000000     0.626600000000     0.364400000000    -0.193518   
N        N      0.004980000000     0.236590000000     0.047150000000    -0.193518   
N        N      0.012940000000     0.395950000000     0.060520000000    -0.193518   
N        N      0.975040000000     0.376050000000     0.985030000000    -0.193518   
N        N      0.933500000000     0.230890000000     0.916640000000    -0.193518   
N        N      0.127090000000     0.053370000000     0.990930000000    -0.193518   
N        N      0.113210000000     0.968350000000     0.947740000000    -0.193518   
N        N      0.273420000000     0.021410000000     0.927130000000    -0.193518   
N        N      0.221000000000     0.873400000000     0.864400000000    -0.193518   
N        N      0.495020000000     0.736590000000     0.952850000000    -0.193518   
N        N      0.487060000000     0.895950000000     0.939480000000    -0.193518   
N        N      0.524960000000     0.876050000000     0.014970000000    -0.193518   
N        N      0.566500000000     0.730890000000     0.083360000000    -0.193518   
N        N      0.372910000000     0.553370000000     0.009070000000    -0.193518   
N        N      0.386790000000     0.468350000000     0.052260000000    -0.193518   
N        N      0.226580000000     0.521410000000     0.072870000000    -0.193518   
N        N      0.279000000000     0.373400000000     0.135600000000    -0.193518   
N        N      0.504980000000     0.763410000000     0.452850000000    -0.193518   
N        N      0.512940000000     0.604050000000     0.439480000000    -0.193518   
N        N      0.475040000000     0.623950000000     0.514970000000    -0.193518   
N        N      0.433500000000     0.769110000000     0.583360000000    -0.193518   
N        N      0.627090000000     0.946630000000     0.509070000000    -0.193518   
N        N      0.613210000000     0.031650000000     0.552260000000    -0.193518   
N        N      0.773420000000     0.978590000000     0.572870000000    -0.193518   
N        N      0.721000000000     0.126600000000     0.635600000000    -0.193518   
N        N      0.004980000000     0.736590000000     0.452850000000    -0.193518   
N        N      0.012940000000     0.895950000000     0.439480000000    -0.193518   
N        N      0.975040000000     0.876050000000     0.514970000000    -0.193518   
N        N      0.933500000000     0.730890000000     0.583360000000    -0.193518   
N        N      0.127090000000     0.553370000000     0.509070000000    -0.193518   
N        N      0.113210000000     0.468350000000     0.552260000000    -0.193518   
N        N      0.273420000000     0.521410000000     0.572870000000    -0.193518   
N        N      0.221000000000     0.373400000000     0.635600000000    -0.193518   
N        N      0.995020000000     0.763410000000     0.952850000000    -0.193518   
N        N      0.987060000000     0.604050000000     0.939480000000    -0.193518   
N        N      0.024960000000     0.623950000000     0.014970000000    -0.193518   
N        N      0.066500000000     0.769110000000     0.083360000000    -0.193518   
N        N      0.872910000000     0.946630000000     0.009070000000    -0.193518   
N        N      0.886790000000     0.031650000000     0.052260000000    -0.193518   
N        N      0.726580000000     0.978590000000     0.072870000000    -0.193518   
N        N      0.779000000000     0.126600000000     0.135600000000    -0.193518   
N        N      0.504980000000     0.263410000000     0.047150000000    -0.193518   
N        N      0.512940000000     0.104050000000     0.060520000000    -0.193518   
N        N      0.475040000000     0.123950000000     0.985030000000    -0.193518   
N        N      0.433500000000     0.269110000000     0.916640000000    -0.193518   
N        N      0.627090000000     0.446630000000     0.990930000000    -0.193518   
N        N      0.613210000000     0.531650000000     0.947740000000    -0.193518   
N        N      0.773420000000     0.478590000000     0.927130000000    -0.193518   
N        N      0.721000000000     0.626600000000     0.864400000000    -0.193518   
N        N      0.495020000000     0.236590000000     0.547150000000    -0.193518   
N        N      0.487060000000     0.395950000000     0.560520000000    -0.193518   
N        N      0.524960000000     0.376050000000     0.485030000000    -0.193518   
N        N      0.566500000000     0.230890000000     0.416640000000    -0.193518   
N        N      0.372910000000     0.053370000000     0.490930000000    -0.193518   
N        N      0.386790000000     0.968350000000     0.447740000000    -0.193518   
N        N      0.226580000000     0.021410000000     0.427130000000    -0.193518   
N        N      0.279000000000     0.873400000000     0.364400000000    -0.193518   
O        O      0.000690000000     0.355180000000     0.691340000000    -0.263351   
O        O      0.916060000000     0.523120000000     0.649590000000    -0.263351   
O        O      0.894250000000     0.559020000000     0.778680000000    -0.263351   
O        O      0.982480000000     0.391390000000     0.818470000000    -0.263351   
O        O      0.999310000000     0.144820000000     0.191340000000    -0.263351   
O        O      0.083940000000     0.976880000000     0.149590000000    -0.263351   
O        O      0.105750000000     0.940980000000     0.278680000000    -0.263351   
O        O      0.017520000000     0.108610000000     0.318470000000    -0.263351   
O        O      0.500690000000     0.644820000000     0.808660000000    -0.263351   
O        O      0.416060000000     0.476880000000     0.850410000000    -0.263351   
O        O      0.394250000000     0.440980000000     0.721320000000    -0.263351   
O        O      0.482480000000     0.608610000000     0.681530000000    -0.263351   
O        O      0.499310000000     0.855180000000     0.308660000000    -0.263351   
O        O      0.583940000000     0.023120000000     0.350410000000    -0.263351   
O        O      0.605750000000     0.059020000000     0.221320000000    -0.263351   
O        O      0.517520000000     0.891390000000     0.181530000000    -0.263351   
O        O      0.999310000000     0.644820000000     0.308660000000    -0.263351   
O        O      0.083940000000     0.476880000000     0.350410000000    -0.263351   
O        O      0.105750000000     0.440980000000     0.221320000000    -0.263351   
O        O      0.017520000000     0.608610000000     0.181530000000    -0.263351   
O        O      0.000690000000     0.855180000000     0.808660000000    -0.263351   
O        O      0.916060000000     0.023120000000     0.850410000000    -0.263351   
O        O      0.894250000000     0.059020000000     0.721320000000    -0.263351   
O        O      0.982480000000     0.891390000000     0.681530000000    -0.263351   
O        O      0.499310000000     0.355180000000     0.191340000000    -0.263351   
O        O      0.583940000000     0.523120000000     0.149590000000    -0.263351   
O        O      0.605750000000     0.559020000000     0.278680000000    -0.263351   
O        O      0.517520000000     0.391390000000     0.318470000000    -0.263351   
O        O      0.500690000000     0.144820000000     0.691340000000    -0.263351   
O        O      0.416060000000     0.976880000000     0.649590000000    -0.263351   
O        O      0.394250000000     0.940980000000     0.778680000000    -0.263351   
O        O      0.482480000000     0.108610000000     0.818470000000    -0.263351   


