data_WALCIX_original

_audit_creation_method RASPA-1.0
_audit_creation_date 2022-1-28
_audit_author_name 'Felipe Lopes de Oliveira <felipe.lopes.oliveira@ibm.com>'

_cell_length_a    12.8732
_cell_length_b    13.8107
_cell_length_c    16.8085
_cell_angle_alpha 90
_cell_angle_beta  90
_cell_angle_gamma 90
_cell_volume      2988.35

_symmetry_cell_setting          triclinic
_symmetry_space_group_name_Hall 'P 1'
_symmetry_space_group_name_H-M  'P 1'
_symmetry_Int_Tables_number     1

_symmetry_equiv_pos_as_xyz 'x,y,z'

loop_
_atom_site_label
_atom_site_type_symbol
_atom_site_fract_x
_atom_site_fract_y
_atom_site_fract_z
_atom_site_charge
Zn       Zn     0.570610000000     0.978690000000     0.902820000000     0.39107    
Zn       Zn     0.429390000000     0.521310000000     0.402820000000     0.39107    
Zn       Zn     0.070610000000     0.021310000000     0.597180000000     0.39107    
Zn       Zn     0.929390000000     0.478690000000     0.097180000000     0.39107    
Zn       Zn     0.429390000000     0.021310000000     0.097180000000     0.39107    
Zn       Zn     0.570610000000     0.478690000000     0.597180000000     0.39107    
Zn       Zn     0.929390000000     0.978690000000     0.402820000000     0.39107    
Zn       Zn     0.070610000000     0.521310000000     0.902820000000     0.39107    
Zn       Zn     0.523880000000     0.907060000000     0.574630000000     0.39107    
Zn       Zn     0.476120000000     0.592940000000     0.074630000000     0.39107    
Zn       Zn     0.023880000000     0.092940000000     0.925370000000     0.39107    
Zn       Zn     0.976120000000     0.407060000000     0.425370000000     0.39107    
Zn       Zn     0.476120000000     0.092940000000     0.425370000000     0.39107    
Zn       Zn     0.523880000000     0.407060000000     0.925370000000     0.39107    
Zn       Zn     0.976120000000     0.907060000000     0.074630000000     0.39107    
Zn       Zn     0.023880000000     0.592940000000     0.574630000000     0.39107    
H        H      0.745100000000     0.865600000000     0.001800000000     0.125769   
H        H      0.254900000000     0.634400000000     0.501800000000     0.125769   
H        H      0.245100000000     0.134400000000     0.498200000000     0.125769   
H        H      0.754900000000     0.365600000000     0.998200000000     0.125769   
H        H      0.254900000000     0.134400000000     0.998200000000     0.125769   
H        H      0.745100000000     0.365600000000     0.498200000000     0.125769   
H        H      0.754900000000     0.865600000000     0.501800000000     0.125769   
H        H      0.245100000000     0.634400000000     0.001800000000     0.125769   
H        H      0.548200000000     0.196100000000     0.852700000000     0.125769   
H        H      0.451800000000     0.303900000000     0.352700000000     0.125769   
H        H      0.048200000000     0.803900000000     0.647300000000     0.125769   
H        H      0.951800000000     0.696100000000     0.147300000000     0.125769   
H        H      0.451800000000     0.803900000000     0.147300000000     0.125769   
H        H      0.548200000000     0.696100000000     0.647300000000     0.125769   
H        H      0.951800000000     0.196100000000     0.352700000000     0.125769   
H        H      0.048200000000     0.303900000000     0.852700000000     0.125769   
H        H      0.829500000000     0.166400000000     0.851800000000     0.125769   
H        H      0.170500000000     0.333600000000     0.351800000000     0.125769   
H        H      0.329500000000     0.833600000000     0.648200000000     0.125769   
H        H      0.670500000000     0.666400000000     0.148200000000     0.125769   
H        H      0.170500000000     0.833600000000     0.148200000000     0.125769   
H        H      0.829500000000     0.666400000000     0.648200000000     0.125769   
H        H      0.670500000000     0.166400000000     0.351800000000     0.125769   
H        H      0.329500000000     0.333600000000     0.851800000000     0.125769   
H        H      0.719200000000     0.130800000000     0.836800000000     0.125769   
H        H      0.280800000000     0.369200000000     0.336800000000     0.125769   
H        H      0.219200000000     0.869200000000     0.663200000000     0.125769   
H        H      0.780800000000     0.630800000000     0.163200000000     0.125769   
H        H      0.280800000000     0.869200000000     0.163200000000     0.125769   
H        H      0.719200000000     0.630800000000     0.663200000000     0.125769   
H        H      0.780800000000     0.130800000000     0.336800000000     0.125769   
H        H      0.219200000000     0.369200000000     0.836800000000     0.125769   
H        H      0.414800000000     0.235100000000     0.128000000000     0.125769   
H        H      0.585200000000     0.264900000000     0.628000000000     0.125769   
H        H      0.914800000000     0.764900000000     0.372000000000     0.125769   
H        H      0.085200000000     0.735100000000     0.872000000000     0.125769   
H        H      0.585200000000     0.764900000000     0.872000000000     0.125769   
H        H      0.414800000000     0.735100000000     0.372000000000     0.125769   
H        H      0.085200000000     0.235100000000     0.628000000000     0.125769   
H        H      0.914800000000     0.264900000000     0.128000000000     0.125769   
H        H      0.436000000000     0.331600000000     0.087100000000     0.125769   
H        H      0.564000000000     0.168400000000     0.587100000000     0.125769   
H        H      0.936000000000     0.668400000000     0.412900000000     0.125769   
H        H      0.064000000000     0.831600000000     0.912900000000     0.125769   
H        H      0.564000000000     0.668400000000     0.912900000000     0.125769   
H        H      0.436000000000     0.831600000000     0.412900000000     0.125769   
H        H      0.064000000000     0.331600000000     0.587100000000     0.125769   
H        H      0.936000000000     0.168400000000     0.087100000000     0.125769   
C        C      0.575300000000     0.009000000000     0.721200000000     0.189393   
C        C      0.424700000000     0.491000000000     0.221200000000     0.189393   
C        C      0.075300000000     0.991000000000     0.778800000000     0.189393   
C        C      0.924700000000     0.509000000000     0.278800000000     0.189393   
C        C      0.424700000000     0.991000000000     0.278800000000     0.189393   
C        C      0.575300000000     0.509000000000     0.778800000000     0.189393   
C        C      0.924700000000     0.009000000000     0.221200000000     0.189393   
C        C      0.075300000000     0.491000000000     0.721200000000     0.189393   
C        C      0.530300000000     0.910900000000     0.744300000000     0.189393   
C        C      0.469700000000     0.589100000000     0.244300000000     0.189393   
C        C      0.030300000000     0.089100000000     0.755700000000     0.189393   
C        C      0.969700000000     0.410900000000     0.255700000000     0.189393   
C        C      0.469700000000     0.089100000000     0.255700000000     0.189393   
C        C      0.530300000000     0.410900000000     0.755700000000     0.189393   
C        C      0.969700000000     0.910900000000     0.244300000000     0.189393   
C        C      0.030300000000     0.589100000000     0.744300000000     0.189393   
C        C      0.797200000000     0.046600000000     0.909000000000     0.189393   
C        C      0.202800000000     0.453400000000     0.409000000000     0.189393   
C        C      0.297200000000     0.953400000000     0.591000000000     0.189393   
C        C      0.702800000000     0.546600000000     0.091000000000     0.189393   
C        C      0.202800000000     0.953400000000     0.091000000000     0.189393   
C        C      0.797200000000     0.546600000000     0.591000000000     0.189393   
C        C      0.702800000000     0.046600000000     0.409000000000     0.189393   
C        C      0.297200000000     0.453400000000     0.909000000000     0.189393   
C        C      0.775700000000     0.921000000000     0.977900000000     0.189393   
C        C      0.224300000000     0.579000000000     0.477900000000     0.189393   
C        C      0.275700000000     0.079000000000     0.522100000000     0.189393   
C        C      0.724300000000     0.421000000000     0.022100000000     0.189393   
C        C      0.224300000000     0.079000000000     0.022100000000     0.189393   
C        C      0.775700000000     0.421000000000     0.522100000000     0.189393   
C        C      0.724300000000     0.921000000000     0.477900000000     0.189393   
C        C      0.275700000000     0.579000000000     0.977900000000     0.189393   
C        C      0.473800000000     0.220400000000     0.022000000000     0.189393   
C        C      0.526200000000     0.279600000000     0.522000000000     0.189393   
C        C      0.973800000000     0.779600000000     0.478000000000     0.189393   
C        C      0.026200000000     0.720400000000     0.978000000000     0.189393   
C        C      0.526200000000     0.779600000000     0.978000000000     0.189393   
C        C      0.473800000000     0.720400000000     0.478000000000     0.189393   
C        C      0.026200000000     0.220400000000     0.522000000000     0.189393   
C        C      0.973800000000     0.279600000000     0.022000000000     0.189393   
C        C      0.525400000000     0.188700000000     0.906200000000     0.189393   
C        C      0.474600000000     0.311300000000     0.406200000000     0.189393   
C        C      0.025400000000     0.811300000000     0.593800000000     0.189393   
C        C      0.974600000000     0.688700000000     0.093800000000     0.189393   
C        C      0.474600000000     0.811300000000     0.093800000000     0.189393   
C        C      0.525400000000     0.688700000000     0.593800000000     0.189393   
C        C      0.974600000000     0.188700000000     0.406200000000     0.189393   
C        C      0.025400000000     0.311300000000     0.906200000000     0.189393   
N        N      0.724600000000     0.979300000000     0.926500000000    -0.203088   
N        N      0.275400000000     0.520700000000     0.426500000000    -0.203088   
N        N      0.224600000000     0.020700000000     0.573500000000    -0.203088   
N        N      0.775400000000     0.479300000000     0.073500000000    -0.203088   
N        N      0.275400000000     0.020700000000     0.073500000000    -0.203088   
N        N      0.724600000000     0.479300000000     0.573500000000    -0.203088   
N        N      0.775400000000     0.979300000000     0.426500000000    -0.203088   
N        N      0.224600000000     0.520700000000     0.926500000000    -0.203088   
N        N      0.871000000000     0.948100000000     0.991500000000    -0.203088   
N        N      0.129000000000     0.551900000000     0.491500000000    -0.203088   
N        N      0.371000000000     0.051900000000     0.508500000000    -0.203088   
N        N      0.629000000000     0.448100000000     0.008500000000    -0.203088   
N        N      0.129000000000     0.051900000000     0.008500000000    -0.203088   
N        N      0.871000000000     0.448100000000     0.508500000000    -0.203088   
N        N      0.629000000000     0.948100000000     0.491500000000    -0.203088   
N        N      0.371000000000     0.551900000000     0.991500000000    -0.203088   
N        N      0.886400000000     0.030300000000     0.946600000000    -0.203088   
N        N      0.113600000000     0.469700000000     0.446600000000    -0.203088   
N        N      0.386400000000     0.969700000000     0.553400000000    -0.203088   
N        N      0.613600000000     0.530300000000     0.053400000000    -0.203088   
N        N      0.113600000000     0.969700000000     0.053400000000    -0.203088   
N        N      0.886400000000     0.530300000000     0.553400000000    -0.203088   
N        N      0.613600000000     0.030300000000     0.446600000000    -0.203088   
N        N      0.386400000000     0.469700000000     0.946600000000    -0.203088   
N        N      0.779900000000     0.123700000000     0.860100000000    -0.203088   
N        N      0.220100000000     0.376300000000     0.360100000000    -0.203088   
N        N      0.279900000000     0.876300000000     0.639900000000    -0.203088   
N        N      0.720100000000     0.623700000000     0.139900000000    -0.203088   
N        N      0.220100000000     0.876300000000     0.139900000000    -0.203088   
N        N      0.779900000000     0.623700000000     0.639900000000    -0.203088   
N        N      0.720100000000     0.123700000000     0.360100000000    -0.203088   
N        N      0.279900000000     0.376300000000     0.860100000000    -0.203088   
N        N      0.478000000000     0.123900000000     0.017100000000    -0.203088   
N        N      0.522000000000     0.376100000000     0.517100000000    -0.203088   
N        N      0.978000000000     0.876100000000     0.482900000000    -0.203088   
N        N      0.022000000000     0.623900000000     0.982900000000    -0.203088   
N        N      0.522000000000     0.876100000000     0.982900000000    -0.203088   
N        N      0.478000000000     0.623900000000     0.482900000000    -0.203088   
N        N      0.022000000000     0.123900000000     0.517100000000    -0.203088   
N        N      0.978000000000     0.376100000000     0.017100000000    -0.203088   
N        N      0.512100000000     0.104300000000     0.940780000000    -0.203088   
N        N      0.487900000000     0.395700000000     0.440780000000    -0.203088   
N        N      0.012100000000     0.895700000000     0.559220000000    -0.203088   
N        N      0.987900000000     0.604300000000     0.059220000000    -0.203088   
N        N      0.487900000000     0.895700000000     0.059220000000    -0.203088   
N        N      0.512100000000     0.604300000000     0.559220000000    -0.203088   
N        N      0.987900000000     0.104300000000     0.440780000000    -0.203088   
N        N      0.012100000000     0.395700000000     0.940780000000    -0.203088   
N        N      0.503200000000     0.263800000000     0.954600000000    -0.203088   
N        N      0.496800000000     0.236200000000     0.454600000000    -0.203088   
N        N      0.003200000000     0.736200000000     0.545400000000    -0.203088   
N        N      0.996800000000     0.763800000000     0.045400000000    -0.203088   
N        N      0.496800000000     0.736200000000     0.045400000000    -0.203088   
N        N      0.503200000000     0.763800000000     0.545400000000    -0.203088   
N        N      0.996800000000     0.263800000000     0.454600000000    -0.203088   
N        N      0.003200000000     0.236200000000     0.954600000000    -0.203088   
N        N      0.437300000000     0.267900000000     0.086500000000    -0.203088   
N        N      0.562700000000     0.232100000000     0.586500000000    -0.203088   
N        N      0.937300000000     0.732100000000     0.413500000000    -0.203088   
N        N      0.062700000000     0.767900000000     0.913500000000    -0.203088   
N        N      0.562700000000     0.732100000000     0.913500000000    -0.203088   
N        N      0.437300000000     0.767900000000     0.413500000000    -0.203088   
N        N      0.062700000000     0.267900000000     0.586500000000    -0.203088   
N        N      0.937300000000     0.232100000000     0.086500000000    -0.203088   
O        O      0.601100000000     0.062500000000     0.777900000000    -0.262103   
O        O      0.398900000000     0.437500000000     0.277900000000    -0.262103   
O        O      0.101100000000     0.937500000000     0.722100000000    -0.262103   
O        O      0.898900000000     0.562500000000     0.222100000000    -0.262103   
O        O      0.398900000000     0.937500000000     0.222100000000    -0.262103   
O        O      0.601100000000     0.562500000000     0.722100000000    -0.262103   
O        O      0.898900000000     0.062500000000     0.277900000000    -0.262103   
O        O      0.101100000000     0.437500000000     0.777900000000    -0.262103   
O        O      0.519600000000     0.892100000000     0.816290000000    -0.262103   
O        O      0.480400000000     0.607900000000     0.316290000000    -0.262103   
O        O      0.019600000000     0.107900000000     0.683710000000    -0.262103   
O        O      0.980400000000     0.392100000000     0.183710000000    -0.262103   
O        O      0.480400000000     0.107900000000     0.183710000000    -0.262103   
O        O      0.519600000000     0.392100000000     0.683710000000    -0.262103   
O        O      0.980400000000     0.892100000000     0.316290000000    -0.262103   
O        O      0.019600000000     0.607900000000     0.816290000000    -0.262103   
O        O      0.581900000000     0.025100000000     0.647930000000    -0.262103   
O        O      0.418100000000     0.474900000000     0.147930000000    -0.262103   
O        O      0.081900000000     0.974900000000     0.852070000000    -0.262103   
O        O      0.918100000000     0.525100000000     0.352070000000    -0.262103   
O        O      0.418100000000     0.974900000000     0.352070000000    -0.262103   
O        O      0.581900000000     0.525100000000     0.852070000000    -0.262103   
O        O      0.918100000000     0.025100000000     0.147930000000    -0.262103   
O        O      0.081900000000     0.474900000000     0.647930000000    -0.262103   
O        O      0.504800000000     0.855300000000     0.689490000000    -0.262103   
O        O      0.495200000000     0.644700000000     0.189490000000    -0.262103   
O        O      0.004800000000     0.144700000000     0.810510000000    -0.262103   
O        O      0.995200000000     0.355300000000     0.310510000000    -0.262103   
O        O      0.495200000000     0.144700000000     0.310510000000    -0.262103   
O        O      0.504800000000     0.355300000000     0.810510000000    -0.262103   
O        O      0.995200000000     0.855300000000     0.189490000000    -0.262103   
O        O      0.004800000000     0.644700000000     0.689490000000    -0.262103   


