data_WAYMEQ_original

_audit_creation_method RASPA-1.0
_audit_creation_date 2022-1-29
_audit_author_name 'Felipe Lopes de Oliveira <felipe.lopes.oliveira@ibm.com>'

_cell_length_a    6.6125
_cell_length_b    11.0337
_cell_length_c    11.0337
_cell_angle_alpha 70.3612
_cell_angle_beta  72.5635
_cell_angle_gamma 72.5635
_cell_volume      705.404

_symmetry_cell_setting          triclinic
_symmetry_space_group_name_Hall 'P 1'
_symmetry_space_group_name_H-M  'P 1'
_symmetry_Int_Tables_number     1

_symmetry_equiv_pos_as_xyz 'x,y,z'

loop_
_atom_site_label
_atom_site_type_symbol
_atom_site_fract_x
_atom_site_fract_y
_atom_site_fract_z
_atom_site_charge
Al       Al     0.750000000000     0.750000000000     0.250000000000     7.28331    
Al       Al     0.250000000000     0.750000000000     0.250000000000     7.28331    
H        H      0.328280000000     0.361050000000     0.287930000000    -0.0065607  
H        H      0.463410000000     0.118390000000     0.259630000000    -0.0065607  
H        H      0.671720000000     0.712070000000     0.638950000000    -0.0065607  
H        H      0.536590000000     0.740370000000     0.881610000000    -0.0065607  
H        H      0.977260000000     0.712070000000     0.638950000000    -0.0065607  
H        H      0.841430000000     0.740370000000     0.881610000000    -0.0065607  
H        H      0.022740000000     0.361050000000     0.287930000000    -0.0065607  
H        H      0.158570000000     0.118390000000     0.259630000000    -0.0065607  
C        C      0.506700000000     0.308800000000     0.281800000000     0.247073   
C        C      0.583700000000     0.170500000000     0.265700000000     0.247073   
C        C      0.493300000000     0.718200000000     0.691200000000     0.247073   
C        C      0.416300000000     0.734300000000     0.829500000000     0.247073   
C        C      0.097300000000     0.718200000000     0.691200000000     0.247073   
C        C      0.019900000000     0.734300000000     0.829500000000     0.247073   
C        C      0.902700000000     0.308800000000     0.281800000000     0.247073   
C        C      0.980100000000     0.170500000000     0.265700000000     0.247073   
C        C      0.805400000000     0.128400000000     0.260800000000     0.247073   
C        C      0.681400000000     0.350600000000     0.286600000000     0.247073   
C        C      0.878900000000     0.989900000000     0.252300000000     0.247073   
C        C      0.614000000000     0.494200000000     0.277800000000     0.247073   
C        C      0.194600000000     0.739200000000     0.871600000000     0.247073   
C        C      0.318600000000     0.713400000000     0.649400000000     0.247073   
C        C      0.121100000000     0.747700000000     0.010100000000     0.247073   
C        C      0.386000000000     0.722200000000     0.505800000000     0.247073   
O        O      0.727600000000     0.576000000000     0.271600000000    -1.84673    
O        O      0.074100000000     0.923000000000     0.253400000000    -1.84673    
O        O      0.272400000000     0.728400000000     0.424000000000    -1.84673    
O        O      0.925900000000     0.746600000000     0.077000000000    -1.84673    
O        O      0.575200000000     0.728400000000     0.424000000000    -1.84673    
O        O      0.250500000000     0.746600000000     0.077000000000    -1.84673    
O        O      0.424800000000     0.576000000000     0.271600000000    -1.84673    
O        O      0.749500000000     0.923000000000     0.253400000000    -1.84673    
O        O      0.000000000000     0.692100000000     0.307900000000    -1.84673    
O        O      0.500000000000     0.807300000000     0.192700000000    -1.84673    


