data_WAYMIU_original

_audit_creation_method RASPA-1.0
_audit_creation_date 2022-2-1
_audit_author_name 'Felipe Lopes de Oliveira <felipe.lopes.oliveira@ibm.com>'

_cell_length_a    6.57212
_cell_length_b    10.942
_cell_length_c    10.9442
_cell_angle_alpha 75.7983
_cell_angle_beta  72.5991
_cell_angle_gamma 72.6348
_cell_volume      706.168

_symmetry_cell_setting          triclinic
_symmetry_space_group_name_Hall 'P 1'
_symmetry_space_group_name_H-M  'P 1'
_symmetry_Int_Tables_number     1

_symmetry_equiv_pos_as_xyz 'x,y,z'

loop_
_atom_site_label
_atom_site_type_symbol
_atom_site_fract_x
_atom_site_fract_y
_atom_site_fract_z
_atom_site_charge
Al       Al     0.253928000000     0.756327000000     0.248654000000     30.4815    
Al       Al     0.752979000000     0.756337000000     0.249363000000     30.4815    
H        H      0.024013000000     0.375449000000     0.236238000000     0.643137   
H        H      0.144482000000     0.142760000000     0.228608000000     0.643137   
H        H      0.982588000000     0.758579000000     0.631467000000     0.643137   
H        H      0.862167000000     0.766949000000     0.864177000000     0.643137   
H        H      0.637383000000     0.759973000000     0.631820000000     0.643137   
H        H      0.516843000000     0.768673000000     0.864440000000     0.643137   
H        H      0.368717000000     0.374495000000     0.236064000000     0.643137   
H        H      0.489795000000     0.141296000000     0.228625000000     0.643137   
H        H      0.506106000000     0.873840000000     0.131995000000     0.643137   
H        H      0.004099000000     0.639949000000     0.367685000000     0.643137   
C        C      0.905605000000     0.325118000000     0.235942000000     0.972287   
C        C      0.974834000000     0.191899000000     0.231322000000     0.972287   
C        C      0.101345000000     0.759150000000     0.681343000000     0.972287   
C        C      0.032195000000     0.764240000000     0.814493000000     0.972287   
C        C      0.468507000000     0.760022000000     0.681524000000     0.972287   
C        C      0.399586000000     0.765052000000     0.814714000000     0.972287   
C        C      0.538093000000     0.324466000000     0.235941000000     0.972287   
C        C      0.607662000000     0.191027000000     0.231261000000     0.972287   
C        C      0.825812000000     0.122423000000     0.232202000000     0.972287   
C        C      0.685354000000     0.392612000000     0.241111000000     0.972287   
C        C      0.895720000000     0.979234000000     0.236892000000     0.972287   
C        C      0.611503000000     0.533883000000     0.248402000000     0.972287   
C        C      0.181046000000     0.765476000000     0.883153000000     0.972287   
C        C      0.320866000000     0.755766000000     0.613243000000     0.972287   
C        C      0.110436000000     0.763706000000     0.025783000000     0.972287   
C        C      0.394415000000     0.751086000000     0.471503000000     0.972287   
O        O      0.409082000000     0.591980000000     0.250208000000    -8.29509    
O        O      0.096521000000     0.920528000000     0.239296000000    -8.29509    
O        O      0.596455000000     0.750140000000     0.413727000000    -8.29509    
O        O      0.910513000000     0.760723000000     0.084930000000    -8.29509    
O        O      0.251743000000     0.750363000000     0.412890000000    -8.29509    
O        O      0.254047000000     0.763419000000     0.084047000000    -8.29509    
O        O      0.754043000000     0.591947000000     0.251075000000    -8.29509    
O        O      0.750660000000     0.920641000000     0.239729000000    -8.29509    
O        O      0.003112000000     0.703688000000     0.303944000000    -8.29509    
O        O      0.501275000000     0.810966000000     0.197763000000    -8.29509    


