data_WEBREC_original

_audit_creation_method RASPA-1.0
_audit_creation_date 2022-1-28
_audit_author_name 'Felipe Lopes de Oliveira <felipe.lopes.oliveira@ibm.com>'

_cell_length_a    13.289
_cell_length_b    13.711
_cell_length_c    16.467
_cell_angle_alpha 90
_cell_angle_beta  90
_cell_angle_gamma 117.02
_cell_volume      2672.88

_symmetry_cell_setting          triclinic
_symmetry_space_group_name_Hall 'P 1'
_symmetry_space_group_name_H-M  'P 1'
_symmetry_Int_Tables_number     1

_symmetry_equiv_pos_as_xyz 'x,y,z'

loop_
_atom_site_label
_atom_site_type_symbol
_atom_site_fract_x
_atom_site_fract_y
_atom_site_fract_z
_atom_site_charge
Zn       Zn     0.092520000000     0.114220000000     0.502960000000     0.46204    
Zn       Zn     0.907480000000     0.385780000000     0.002960000000     0.46204    
Zn       Zn     0.907480000000     0.885780000000     0.497040000000     0.46204    
Zn       Zn     0.092520000000     0.614220000000     0.997040000000     0.46204    
H        H      0.335500000000     0.185900000000     0.520300000000     0.0755572  
H        H      0.506700000000     0.340200000000     0.519300000000     0.0755572  
H        H      0.341800000000     0.518900000000     0.478800000000     0.0755572  
H        H      0.175400000000     0.359000000000     0.479100000000     0.0755572  
H        H      0.925000000000     0.265500000000     0.346900000000     0.0755572  
H        H      0.837500000000     0.307400000000     0.239400000000     0.0755572  
H        H      0.705700000000     0.169100000000     0.159900000000     0.0755572  
H        H      0.745300000000     0.944500000000     0.295600000000     0.0755572  
H        H      0.509400000000     0.880000000000     0.290300000000     0.0755572  
H        H      0.424900000000     0.697700000000     0.331900000000     0.0755572  
H        H      0.566300000000     0.621100000000     0.142300000000     0.0755572  
H        H      0.651500000000     0.803500000000     0.100900000000     0.0755572  
H        H      0.333200000000     0.346100000000     0.321100000000     0.0755572  
H        H      0.148500000000     0.220200000000     0.292900000000     0.0755572  
H        H      0.041800000000     0.263800000000     0.201700000000     0.0755572  
H        H      0.302300000000     0.564800000000     0.172000000000     0.0755572  
H        H      0.664500000000     0.314100000000     0.020300000000     0.0755572  
H        H      0.493300000000     0.159800000000     0.019300000000     0.0755572  
H        H      0.658200000000     0.981100000000     0.978800000000     0.0755572  
H        H      0.824600000000     0.141000000000     0.979100000000     0.0755572  
H        H      0.075000000000     0.234500000000     0.846900000000     0.0755572  
H        H      0.162500000000     0.192600000000     0.739400000000     0.0755572  
H        H      0.294300000000     0.330900000000     0.659900000000     0.0755572  
H        H      0.254700000000     0.555500000000     0.795600000000     0.0755572  
H        H      0.490600000000     0.620000000000     0.790300000000     0.0755572  
H        H      0.575100000000     0.802300000000     0.831900000000     0.0755572  
H        H      0.433700000000     0.878900000000     0.642300000000     0.0755572  
H        H      0.348500000000     0.696500000000     0.600900000000     0.0755572  
H        H      0.666800000000     0.153900000000     0.821100000000     0.0755572  
H        H      0.851500000000     0.279800000000     0.792900000000     0.0755572  
H        H      0.958200000000     0.236200000000     0.701700000000     0.0755572  
H        H      0.697700000000     0.935200000000     0.672000000000     0.0755572  
H        H      0.664500000000     0.814100000000     0.479700000000     0.0755572  
H        H      0.493300000000     0.659800000000     0.480700000000     0.0755572  
H        H      0.658200000000     0.481100000000     0.521200000000     0.0755572  
H        H      0.824600000000     0.641000000000     0.520900000000     0.0755572  
H        H      0.075000000000     0.734500000000     0.653100000000     0.0755572  
H        H      0.162500000000     0.692600000000     0.760600000000     0.0755572  
H        H      0.294300000000     0.830900000000     0.840100000000     0.0755572  
H        H      0.254700000000     0.055500000000     0.704400000000     0.0755572  
H        H      0.490600000000     0.120000000000     0.709700000000     0.0755572  
H        H      0.575100000000     0.302300000000     0.668100000000     0.0755572  
H        H      0.433700000000     0.378900000000     0.857700000000     0.0755572  
H        H      0.348500000000     0.196500000000     0.899100000000     0.0755572  
H        H      0.666800000000     0.653900000000     0.678900000000     0.0755572  
H        H      0.851500000000     0.779800000000     0.707100000000     0.0755572  
H        H      0.958200000000     0.736200000000     0.798300000000     0.0755572  
H        H      0.697700000000     0.435200000000     0.828000000000     0.0755572  
H        H      0.335500000000     0.685900000000     0.979700000000     0.0755572  
H        H      0.506700000000     0.840200000000     0.980700000000     0.0755572  
H        H      0.341800000000     0.018900000000     0.021200000000     0.0755572  
H        H      0.175400000000     0.859000000000     0.020900000000     0.0755572  
H        H      0.925000000000     0.765500000000     0.153100000000     0.0755572  
H        H      0.837500000000     0.807400000000     0.260600000000     0.0755572  
H        H      0.705700000000     0.669100000000     0.340100000000     0.0755572  
H        H      0.745300000000     0.444500000000     0.204400000000     0.0755572  
H        H      0.509400000000     0.380000000000     0.209700000000     0.0755572  
H        H      0.424900000000     0.197700000000     0.168100000000     0.0755572  
H        H      0.566300000000     0.121100000000     0.357700000000     0.0755572  
H        H      0.651500000000     0.303500000000     0.399100000000     0.0755572  
H        H      0.333200000000     0.846100000000     0.178900000000     0.0755572  
H        H      0.148500000000     0.720200000000     0.207100000000     0.0755572  
H        H      0.041800000000     0.763800000000     0.298300000000     0.0755572  
H        H      0.302300000000     0.064800000000     0.328000000000     0.0755572  
C        C      0.337110000000     0.253680000000     0.511840000000     0.00569338 
C        C      0.440610000000     0.346520000000     0.511530000000     0.00569338 
C        C      0.445640000000     0.449120000000     0.499610000000     0.00569338 
C        C      0.342930000000     0.452340000000     0.487280000000     0.00569338 
C        C      0.242830000000     0.355460000000     0.487890000000     0.00569338 
C        C      0.902740000000     0.071150000000     0.397740000000     0.00569338 
C        C      0.844120000000     0.100930000000     0.331530000000     0.00569338 
C        C      0.871950000000     0.209850000000     0.315120000000     0.00569338 
C        C      0.819420000000     0.234750000000     0.250480000000     0.00569338 
C        C      0.740620000000     0.152140000000     0.202700000000     0.00569338 
C        C      0.714200000000     0.043500000000     0.219360000000     0.00569338 
C        C      0.764520000000     0.017210000000     0.284060000000     0.00569338 
C        C      0.589270000000     0.858220000000     0.192750000000     0.00569338 
C        C      0.521170000000     0.827990000000     0.261200000000     0.00569338 
C        C      0.470700000000     0.719380000000     0.285980000000     0.00569338 
C        C      0.489810000000     0.643750000000     0.241050000000     0.00569338 
C        C      0.555870000000     0.673480000000     0.172000000000     0.00569338 
C        C      0.606610000000     0.782170000000     0.147230000000     0.00569338 
C        C      0.335190000000     0.467370000000     0.249230000000     0.00569338 
C        C      0.289780000000     0.364070000000     0.285550000000     0.00569338 
C        C      0.179660000000     0.288640000000     0.268170000000     0.00569338 
C        C      0.115380000000     0.315020000000     0.213710000000     0.00569338 
C        C      0.161280000000     0.418140000000     0.177270000000     0.00569338 
C        C      0.271700000000     0.495580000000     0.195420000000     0.00569338 
C        C      0.094000000000     0.445910000000     0.116650000000     0.00569338 
C        C      0.662890000000     0.246320000000     0.011840000000     0.00569338 
C        C      0.559390000000     0.153480000000     0.011530000000     0.00569338 
C        C      0.554360000000     0.050880000000     0.999610000000     0.00569338 
C        C      0.657070000000     0.047660000000     0.987280000000     0.00569338 
C        C      0.757170000000     0.144540000000     0.987890000000     0.00569338 
C        C      0.097260000000     0.428850000000     0.897740000000     0.00569338 
C        C      0.155880000000     0.399070000000     0.831530000000     0.00569338 
C        C      0.128050000000     0.290150000000     0.815120000000     0.00569338 
C        C      0.180580000000     0.265250000000     0.750480000000     0.00569338 
C        C      0.259380000000     0.347860000000     0.702700000000     0.00569338 
C        C      0.285800000000     0.456500000000     0.719360000000     0.00569338 
C        C      0.235480000000     0.482790000000     0.784060000000     0.00569338 
C        C      0.410730000000     0.641780000000     0.692750000000     0.00569338 
C        C      0.478830000000     0.672010000000     0.761200000000     0.00569338 
C        C      0.529300000000     0.780620000000     0.785980000000     0.00569338 
C        C      0.510190000000     0.856250000000     0.741050000000     0.00569338 
C        C      0.444130000000     0.826520000000     0.672000000000     0.00569338 
C        C      0.393390000000     0.717830000000     0.647230000000     0.00569338 
C        C      0.664810000000     0.032630000000     0.749230000000     0.00569338 
C        C      0.710220000000     0.135930000000     0.785550000000     0.00569338 
C        C      0.820340000000     0.211360000000     0.768170000000     0.00569338 
C        C      0.884620000000     0.184980000000     0.713710000000     0.00569338 
C        C      0.838720000000     0.081860000000     0.677270000000     0.00569338 
C        C      0.728300000000     0.004420000000     0.695420000000     0.00569338 
C        C      0.906000000000     0.054090000000     0.616650000000     0.00569338 
C        C      0.662890000000     0.746320000000     0.488160000000     0.00569338 
C        C      0.559390000000     0.653480000000     0.488470000000     0.00569338 
C        C      0.554360000000     0.550880000000     0.500390000000     0.00569338 
C        C      0.657070000000     0.547660000000     0.512720000000     0.00569338 
C        C      0.757170000000     0.644540000000     0.512110000000     0.00569338 
C        C      0.097260000000     0.928850000000     0.602260000000     0.00569338 
C        C      0.155880000000     0.899070000000     0.668470000000     0.00569338 
C        C      0.128050000000     0.790150000000     0.684880000000     0.00569338 
C        C      0.180580000000     0.765250000000     0.749520000000     0.00569338 
C        C      0.259380000000     0.847860000000     0.797300000000     0.00569338 
C        C      0.285800000000     0.956500000000     0.780640000000     0.00569338 
C        C      0.235480000000     0.982790000000     0.715940000000     0.00569338 
C        C      0.410730000000     0.141780000000     0.807250000000     0.00569338 
C        C      0.478830000000     0.172010000000     0.738800000000     0.00569338 
C        C      0.529300000000     0.280620000000     0.714020000000     0.00569338 
C        C      0.510190000000     0.356250000000     0.758950000000     0.00569338 
C        C      0.444130000000     0.326520000000     0.828000000000     0.00569338 
C        C      0.393390000000     0.217830000000     0.852770000000     0.00569338 
C        C      0.664810000000     0.532630000000     0.750770000000     0.00569338 
C        C      0.710220000000     0.635930000000     0.714450000000     0.00569338 
C        C      0.820340000000     0.711360000000     0.731830000000     0.00569338 
C        C      0.884620000000     0.684980000000     0.786290000000     0.00569338 
C        C      0.838720000000     0.581860000000     0.822730000000     0.00569338 
C        C      0.728300000000     0.504420000000     0.804580000000     0.00569338 
C        C      0.906000000000     0.554090000000     0.883350000000     0.00569338 
C        C      0.337110000000     0.753680000000     0.988160000000     0.00569338 
C        C      0.440610000000     0.846520000000     0.988470000000     0.00569338 
C        C      0.445640000000     0.949120000000     0.000390000000     0.00569338 
C        C      0.342930000000     0.952340000000     0.012720000000     0.00569338 
C        C      0.242830000000     0.855460000000     0.012110000000     0.00569338 
C        C      0.902740000000     0.571150000000     0.102260000000     0.00569338 
C        C      0.844120000000     0.600930000000     0.168470000000     0.00569338 
C        C      0.871950000000     0.709850000000     0.184880000000     0.00569338 
C        C      0.819420000000     0.734750000000     0.249520000000     0.00569338 
C        C      0.740620000000     0.652140000000     0.297300000000     0.00569338 
C        C      0.714200000000     0.543500000000     0.280640000000     0.00569338 
C        C      0.764520000000     0.517210000000     0.215940000000     0.00569338 
C        C      0.589270000000     0.358220000000     0.307250000000     0.00569338 
C        C      0.521170000000     0.327990000000     0.238800000000     0.00569338 
C        C      0.470700000000     0.219380000000     0.214020000000     0.00569338 
C        C      0.489810000000     0.143750000000     0.258950000000     0.00569338 
C        C      0.555870000000     0.173480000000     0.328000000000     0.00569338 
C        C      0.606610000000     0.282170000000     0.352770000000     0.00569338 
C        C      0.335190000000     0.967370000000     0.250770000000     0.00569338 
C        C      0.289780000000     0.864070000000     0.214450000000     0.00569338 
C        C      0.179660000000     0.788640000000     0.231830000000     0.00569338 
C        C      0.115380000000     0.815020000000     0.286290000000     0.00569338 
C        C      0.161280000000     0.918140000000     0.322730000000     0.00569338 
C        C      0.271700000000     0.995580000000     0.304580000000     0.00569338 
C        C      0.094000000000     0.945910000000     0.383350000000     0.00569338 
N        N      0.238790000000     0.257810000000     0.500430000000    -0.158617   
N        N      0.761210000000     0.242190000000     0.000430000000    -0.158617   
N        N      0.761210000000     0.742190000000     0.499570000000    -0.158617   
N        N      0.238790000000     0.757810000000     0.999570000000    -0.158617   
O        O      0.992170000000     0.146790000000     0.426110000000    -0.275779   
O        O      0.859170000000     0.972300000000     0.418820000000    -0.275779   
O        O      0.639240000000     0.966130000000     0.166760000000    -0.275779   
O        O      0.445540000000     0.535760000000     0.268470000000    -0.275779   
O        O      0.135860000000     0.542990000000     0.091290000000    -0.275779   
O        O      0.000720000000     0.369270000000     0.094900000000    -0.275779   
O        O      0.007830000000     0.353210000000     0.926110000000    -0.275779   
O        O      0.140830000000     0.527700000000     0.918820000000    -0.275779   
O        O      0.360760000000     0.533870000000     0.666760000000    -0.275779   
O        O      0.554460000000     0.964240000000     0.768470000000    -0.275779   
O        O      0.864140000000     0.957010000000     0.591290000000    -0.275779   
O        O      0.999280000000     0.130730000000     0.594900000000    -0.275779   
O        O      0.007830000000     0.853210000000     0.573890000000    -0.275779   
O        O      0.140830000000     0.027700000000     0.581180000000    -0.275779   
O        O      0.360760000000     0.033870000000     0.833240000000    -0.275779   
O        O      0.554460000000     0.464240000000     0.731530000000    -0.275779   
O        O      0.864140000000     0.457010000000     0.908710000000    -0.275779   
O        O      0.999280000000     0.630730000000     0.905100000000    -0.275779   
O        O      0.992170000000     0.646790000000     0.073890000000    -0.275779   
O        O      0.859170000000     0.472300000000     0.081180000000    -0.275779   
O        O      0.639240000000     0.466130000000     0.333240000000    -0.275779   
O        O      0.445540000000     0.035760000000     0.231530000000    -0.275779   
O        O      0.135860000000     0.042990000000     0.408710000000    -0.275779   
O        O      0.000720000000     0.869270000000     0.405100000000    -0.275779   


