data_WIHCUM_original

_audit_creation_method RASPA-1.0
_audit_creation_date 2022-1-29
_audit_author_name 'Felipe Lopes de Oliveira <felipe.lopes.oliveira@ibm.com>'

_cell_length_a    5.7328
_cell_length_b    10.9152
_cell_length_c    11.2665
_cell_angle_alpha 90
_cell_angle_beta  97.106
_cell_angle_gamma 90
_cell_volume      699.582

_symmetry_cell_setting          triclinic
_symmetry_space_group_name_Hall 'P 1'
_symmetry_space_group_name_H-M  'P 1'
_symmetry_Int_Tables_number     1

_symmetry_equiv_pos_as_xyz 'x,y,z'

loop_
_atom_site_label
_atom_site_type_symbol
_atom_site_fract_x
_atom_site_fract_y
_atom_site_fract_z
_atom_site_charge
Na       Na     0.772000000000     0.905580000000     0.745480000000     3.25667    
Na       Na     0.024090000000     0.594680000000     0.765220000000     3.25667    
Na       Na     0.272000000000     0.094420000000     0.745480000000     3.25667    
Na       Na     0.524090000000     0.405320000000     0.765220000000     3.25667    
H        H      0.759900000000     0.541500000000     0.045700000000     0.360091   
H        H      0.611700000000     0.628600000000     0.122400000000     0.360091   
H        H      0.026900000000     0.655100000000     0.170000000000     0.360091   
H        H      0.040500000000     0.701700000000     0.036800000000     0.360091   
H        H      0.924600000000     0.706300000000     0.389400000000     0.360091   
H        H      0.758600000000     0.775000000000     0.472100000000     0.360091   
H        H      0.156800000000     0.885300000000     0.384700000000     0.360091   
H        H      0.989800000000     0.954900000000     0.466800000000     0.360091   
H        H      0.184000000000     0.916000000000     0.898000000000     0.360091   
H        H      0.074000000000     0.014000000000     0.928000000000     0.360091   
H        H      0.609000000000     0.594000000000     0.612000000000     0.360091   
H        H      0.703000000000     0.512000000000     0.569000000000     0.360091   
H        H      0.259900000000     0.458500000000     0.045700000000     0.360091   
H        H      0.111700000000     0.371400000000     0.122400000000     0.360091   
H        H      0.526900000000     0.344900000000     0.170000000000     0.360091   
H        H      0.540500000000     0.298300000000     0.036800000000     0.360091   
H        H      0.424600000000     0.293700000000     0.389400000000     0.360091   
H        H      0.258600000000     0.225000000000     0.472100000000     0.360091   
H        H      0.656800000000     0.114700000000     0.384700000000     0.360091   
H        H      0.489800000000     0.045100000000     0.466800000000     0.360091   
H        H      0.684000000000     0.084000000000     0.898000000000     0.360091   
H        H      0.574000000000     0.986000000000     0.928000000000     0.360091   
H        H      0.109000000000     0.406000000000     0.612000000000     0.360091   
H        H      0.203000000000     0.488000000000     0.569000000000     0.360091   
C        C      0.716200000000     0.627800000000     0.058700000000    -0.176096   
C        C      0.939900000000     0.700200000000     0.102200000000    -0.176096   
C        C      0.857100000000     0.786800000000     0.406800000000    -0.176096   
C        C      0.055700000000     0.874100000000     0.449000000000    -0.176096   
C        C      0.216200000000     0.372200000000     0.058700000000    -0.176096   
C        C      0.439900000000     0.299800000000     0.102200000000    -0.176096   
C        C      0.357100000000     0.213200000000     0.406800000000    -0.176096   
C        C      0.555700000000     0.125900000000     0.449000000000    -0.176096   
S        S      0.557080000000     0.685350000000     0.924150000000     0.425294   
S        S      0.898740000000     0.856860000000     0.149690000000     0.425294   
S        S      0.671170000000     0.840170000000     0.273640000000     0.425294   
S        S      0.227680000000     0.816760000000     0.579430000000     0.425294   
S        S      0.057080000000     0.314650000000     0.924150000000     0.425294   
S        S      0.398740000000     0.143140000000     0.149690000000     0.425294   
S        S      0.171170000000     0.159830000000     0.273640000000     0.425294   
S        S      0.727680000000     0.183240000000     0.579430000000     0.425294   
O        O      0.404000000000     0.584560000000     0.877860000000    -1.4789     
O        O      0.731300000000     0.716140000000     0.844670000000    -1.4789     
O        O      0.424000000000     0.791280000000     0.956580000000    -1.4789     
O        O      0.063600000000     0.784280000000     0.663230000000    -1.4789     
O        O      0.389800000000     0.914830000000     0.624520000000    -1.4789     
O        O      0.352300000000     0.710000000000     0.539820000000    -1.4789     
O        O      0.093500000000     0.966400000000     0.880780000000    -1.4789     
O        O      0.693500000000     0.541540000000     0.629800000000    -1.4789     
O        O      0.904000000000     0.415440000000     0.877860000000    -1.4789     
O        O      0.231300000000     0.283860000000     0.844670000000    -1.4789     
O        O      0.924000000000     0.208720000000     0.956580000000    -1.4789     
O        O      0.563600000000     0.215720000000     0.663230000000    -1.4789     
O        O      0.889800000000     0.085170000000     0.624520000000    -1.4789     
O        O      0.852300000000     0.290000000000     0.539820000000    -1.4789     
O        O      0.593500000000     0.033600000000     0.880780000000    -1.4789     
O        O      0.193500000000     0.458460000000     0.629800000000    -1.4789     


