data_WIJDAV_original

_audit_creation_method RASPA-1.0
_audit_creation_date 2022-1-31
_audit_author_name 'Felipe Lopes de Oliveira <felipe.lopes.oliveira@ibm.com>'

_cell_length_a    11.69
_cell_length_b    14.173
_cell_length_c    17.998
_cell_angle_alpha 90
_cell_angle_beta  90
_cell_angle_gamma 111.013
_cell_volume      2783.65

_symmetry_cell_setting          triclinic
_symmetry_space_group_name_Hall 'P 1'
_symmetry_space_group_name_H-M  'P 1'
_symmetry_Int_Tables_number     1

_symmetry_equiv_pos_as_xyz 'x,y,z'

loop_
_atom_site_label
_atom_site_type_symbol
_atom_site_fract_x
_atom_site_fract_y
_atom_site_fract_z
_atom_site_charge
Zn       Zn     0.936590000000     0.113340000000     0.166580000000     0.439109   
Zn       Zn     0.849060000000     0.861250000000     0.144860000000     0.439109   
Zn       Zn     0.871850000000     0.394120000000     0.405810000000     0.439109   
Zn       Zn     0.563410000000     0.386660000000     0.666580000000     0.439109   
Zn       Zn     0.650940000000     0.638750000000     0.644860000000     0.439109   
Zn       Zn     0.628150000000     0.105880000000     0.905810000000     0.439109   
Zn       Zn     0.063410000000     0.886660000000     0.833420000000     0.439109   
Zn       Zn     0.150940000000     0.138750000000     0.855140000000     0.439109   
Zn       Zn     0.128150000000     0.605880000000     0.594190000000     0.439109   
Zn       Zn     0.436590000000     0.613340000000     0.333420000000     0.439109   
Zn       Zn     0.349060000000     0.361250000000     0.355140000000     0.439109   
Zn       Zn     0.371850000000     0.894120000000     0.094190000000     0.439109   
H        H      0.912500000000     0.984000000000     0.245100000000     0.0847097  
H        H      0.803500000000     0.253100000000     0.252200000000     0.0847097  
H        H      0.991200000000     0.575400000000     0.424400000000     0.0847097  
H        H      0.801700000000     0.575200000000     0.444500000000     0.0847097  
H        H      0.776200000000     0.561800000000     0.359000000000     0.0847097  
H        H      0.141700000000     0.118700000000     0.038100000000     0.0847097  
H        H      0.939500000000     0.547700000000     0.276000000000     0.0847097  
H        H      0.063900000000     0.553300000000     0.311900000000     0.0847097  
H        H      0.819200000000     0.728000000000     0.389800000000     0.0847097  
H        H      0.944000000000     0.734700000000     0.426100000000     0.0847097  
H        H      0.110500000000     0.722000000000     0.341900000000     0.0847097  
H        H      0.082000000000     0.708000000000     0.256400000000     0.0847097  
H        H      0.979000000000     0.799700000000     0.311200000000     0.0847097  
H        H      0.892300000000     0.708200000000     0.278200000000     0.0847097  
H        H      0.587500000000     0.516000000000     0.745100000000     0.0847097  
H        H      0.696500000000     0.246900000000     0.752200000000     0.0847097  
H        H      0.508800000000     0.924600000000     0.924400000000     0.0847097  
H        H      0.698300000000     0.924800000000     0.944500000000     0.0847097  
H        H      0.723800000000     0.938200000000     0.859000000000     0.0847097  
H        H      0.358300000000     0.381300000000     0.538100000000     0.0847097  
H        H      0.560500000000     0.952300000000     0.776000000000     0.0847097  
H        H      0.436100000000     0.946700000000     0.811900000000     0.0847097  
H        H      0.680800000000     0.772000000000     0.889800000000     0.0847097  
H        H      0.556000000000     0.765300000000     0.926100000000     0.0847097  
H        H      0.389500000000     0.778000000000     0.841900000000     0.0847097  
H        H      0.418000000000     0.792000000000     0.756400000000     0.0847097  
H        H      0.521000000000     0.700300000000     0.811200000000     0.0847097  
H        H      0.607700000000     0.791800000000     0.778200000000     0.0847097  
H        H      0.087500000000     0.016000000000     0.754900000000     0.0847097  
H        H      0.196500000000     0.746900000000     0.747800000000     0.0847097  
H        H      0.008800000000     0.424600000000     0.575600000000     0.0847097  
H        H      0.198300000000     0.424800000000     0.555500000000     0.0847097  
H        H      0.223800000000     0.438200000000     0.641000000000     0.0847097  
H        H      0.858300000000     0.881300000000     0.961900000000     0.0847097  
H        H      0.060500000000     0.452300000000     0.724000000000     0.0847097  
H        H      0.936100000000     0.446700000000     0.688100000000     0.0847097  
H        H      0.180800000000     0.272000000000     0.610200000000     0.0847097  
H        H      0.056000000000     0.265300000000     0.573900000000     0.0847097  
H        H      0.889500000000     0.278000000000     0.658100000000     0.0847097  
H        H      0.918000000000     0.292000000000     0.743600000000     0.0847097  
H        H      0.021000000000     0.200300000000     0.688800000000     0.0847097  
H        H      0.107700000000     0.291800000000     0.721800000000     0.0847097  
H        H      0.412500000000     0.484000000000     0.254900000000     0.0847097  
H        H      0.303500000000     0.753100000000     0.247800000000     0.0847097  
H        H      0.491200000000     0.075400000000     0.075600000000     0.0847097  
H        H      0.301700000000     0.075200000000     0.055500000000     0.0847097  
H        H      0.276200000000     0.061800000000     0.141000000000     0.0847097  
H        H      0.641700000000     0.618700000000     0.461900000000     0.0847097  
H        H      0.439500000000     0.047700000000     0.224000000000     0.0847097  
H        H      0.563900000000     0.053300000000     0.188100000000     0.0847097  
H        H      0.319200000000     0.228000000000     0.110200000000     0.0847097  
H        H      0.444000000000     0.234700000000     0.073900000000     0.0847097  
H        H      0.610500000000     0.222000000000     0.158100000000     0.0847097  
H        H      0.582000000000     0.208000000000     0.243600000000     0.0847097  
H        H      0.479000000000     0.299700000000     0.188800000000     0.0847097  
H        H      0.392300000000     0.208200000000     0.221800000000     0.0847097  
C        C      0.057400000000     0.249000000000     0.285300000000     0.0872406  
C        C      0.880000000000     0.260700000000     0.271600000000     0.0872406  
C        C      0.104700000000     0.360900000000     0.408400000000     0.0872406  
C        C      0.038200000000     0.309700000000     0.341400000000     0.0872406  
C        C      0.897500000000     0.144400000000     0.863800000000     0.0872406  
C        C      0.937100000000     0.134700000000     0.941100000000     0.0872406  
C        C      0.839300000000     0.591800000000     0.395900000000     0.0872406  
C        C      0.154300000000     0.210900000000     0.261300000000     0.0872406  
C        C      0.069900000000     0.122800000000     0.018600000000     0.0872406  
C        C      0.997000000000     0.578300000000     0.315700000000     0.0872406  
C        C      0.886600000000     0.703500000000     0.386500000000     0.0872406  
C        C      0.046500000000     0.691400000000     0.305600000000     0.0872406  
C        C      0.775900000000     0.135100000000     0.046200000000     0.0872406  
C        C      0.889200000000     0.128800000000     0.011800000000     0.0872406  
C        C      0.442600000000     0.251000000000     0.785300000000     0.0872406  
C        C      0.620000000000     0.239300000000     0.771600000000     0.0872406  
C        C      0.395300000000     0.139100000000     0.908400000000     0.0872406  
C        C      0.461800000000     0.190300000000     0.841400000000     0.0872406  
C        C      0.602500000000     0.355600000000     0.363800000000     0.0872406  
C        C      0.562900000000     0.365300000000     0.441100000000     0.0872406  
C        C      0.660700000000     0.908200000000     0.895900000000     0.0872406  
C        C      0.345700000000     0.289100000000     0.761300000000     0.0872406  
C        C      0.430100000000     0.377200000000     0.518600000000     0.0872406  
C        C      0.503000000000     0.921700000000     0.815700000000     0.0872406  
C        C      0.613400000000     0.796500000000     0.886500000000     0.0872406  
C        C      0.453500000000     0.808600000000     0.805600000000     0.0872406  
C        C      0.724100000000     0.364900000000     0.546200000000     0.0872406  
C        C      0.610800000000     0.371200000000     0.511800000000     0.0872406  
C        C      0.942600000000     0.751000000000     0.714700000000     0.0872406  
C        C      0.120000000000     0.739300000000     0.728400000000     0.0872406  
C        C      0.895300000000     0.639100000000     0.591600000000     0.0872406  
C        C      0.961800000000     0.690300000000     0.658600000000     0.0872406  
C        C      0.102500000000     0.855600000000     0.136200000000     0.0872406  
C        C      0.062900000000     0.865300000000     0.058900000000     0.0872406  
C        C      0.160700000000     0.408200000000     0.604100000000     0.0872406  
C        C      0.845700000000     0.789100000000     0.738700000000     0.0872406  
C        C      0.930100000000     0.877200000000     0.981400000000     0.0872406  
C        C      0.003000000000     0.421700000000     0.684300000000     0.0872406  
C        C      0.113400000000     0.296500000000     0.613500000000     0.0872406  
C        C      0.953500000000     0.308600000000     0.694400000000     0.0872406  
C        C      0.224100000000     0.864900000000     0.953800000000     0.0872406  
C        C      0.110800000000     0.871200000000     0.988200000000     0.0872406  
C        C      0.557400000000     0.749000000000     0.214700000000     0.0872406  
C        C      0.380000000000     0.760700000000     0.228400000000     0.0872406  
C        C      0.604700000000     0.860900000000     0.091600000000     0.0872406  
C        C      0.538200000000     0.809700000000     0.158600000000     0.0872406  
C        C      0.397500000000     0.644400000000     0.636200000000     0.0872406  
C        C      0.437100000000     0.634700000000     0.558900000000     0.0872406  
C        C      0.339300000000     0.091800000000     0.104100000000     0.0872406  
C        C      0.654300000000     0.710900000000     0.238700000000     0.0872406  
C        C      0.569900000000     0.622800000000     0.481400000000     0.0872406  
C        C      0.497000000000     0.078300000000     0.184300000000     0.0872406  
C        C      0.386600000000     0.203500000000     0.113500000000     0.0872406  
C        C      0.546500000000     0.191400000000     0.194400000000     0.0872406  
C        C      0.275900000000     0.635100000000     0.453800000000     0.0872406  
C        C      0.389200000000     0.628800000000     0.488200000000     0.0872406  
N        N      0.954300000000     0.218100000000     0.241500000000    -0.174808   
N        N      0.051500000000     0.130700000000     0.946900000000    -0.174808   
N        N      0.925800000000     0.314700000000     0.331800000000    -0.174808   
N        N      0.934300000000     0.546900000000     0.388600000000    -0.174808   
N        N      0.947600000000     0.731900000000     0.314800000000    -0.174808   
N        N      0.975100000000     0.121300000000     0.059800000000    -0.174808   
N        N      0.545700000000     0.281900000000     0.741500000000    -0.174808   
N        N      0.448500000000     0.369300000000     0.446900000000    -0.174808   
N        N      0.574200000000     0.185300000000     0.831800000000    -0.174808   
N        N      0.565700000000     0.953100000000     0.888600000000    -0.174808   
N        N      0.552400000000     0.768100000000     0.814800000000    -0.174808   
N        N      0.524900000000     0.378700000000     0.559800000000    -0.174808   
N        N      0.045700000000     0.781900000000     0.758500000000    -0.174808   
N        N      0.948500000000     0.869300000000     0.053100000000    -0.174808   
N        N      0.074200000000     0.685300000000     0.668200000000    -0.174808   
N        N      0.065700000000     0.453100000000     0.611400000000    -0.174808   
N        N      0.052400000000     0.268100000000     0.685200000000    -0.174808   
N        N      0.024900000000     0.878700000000     0.940200000000    -0.174808   
N        N      0.454300000000     0.718100000000     0.258500000000    -0.174808   
N        N      0.551500000000     0.630700000000     0.553100000000    -0.174808   
N        N      0.425800000000     0.814700000000     0.168200000000    -0.174808   
N        N      0.434300000000     0.046900000000     0.111400000000    -0.174808   
N        N      0.447600000000     0.231900000000     0.185200000000    -0.174808   
N        N      0.475100000000     0.621300000000     0.440200000000    -0.174808   
O        O      0.867600000000     0.977800000000     0.206500000000    -0.297309   
O        O      0.129100000000     0.150100000000     0.208800000000    -0.297309   
O        O      0.207400000000     0.356900000000     0.423400000000    -0.297309   
O        O      0.048600000000     0.400700000000     0.449100000000    -0.297309   
O        O      0.690800000000     0.143200000000     0.007200000000    -0.297309   
O        O      0.259100000000     0.240800000000     0.293500000000    -0.297309   
O        O      0.792000000000     0.141700000000     0.849500000000    -0.297309   
O        O      0.976600000000     0.153400000000     0.813800000000    -0.297309   
O        O      0.772700000000     0.131500000000     0.114700000000    -0.297309   
O        O      0.632400000000     0.522200000000     0.706500000000    -0.297309   
O        O      0.370900000000     0.349900000000     0.708800000000    -0.297309   
O        O      0.292600000000     0.143100000000     0.923400000000    -0.297309   
O        O      0.451400000000     0.099300000000     0.949100000000    -0.297309   
O        O      0.809200000000     0.356800000000     0.507200000000    -0.297309   
O        O      0.240900000000     0.259200000000     0.793500000000    -0.297309   
O        O      0.708000000000     0.358300000000     0.349500000000    -0.297309   
O        O      0.523400000000     0.346600000000     0.313800000000    -0.297309   
O        O      0.727300000000     0.368500000000     0.614700000000    -0.297309   
O        O      0.132400000000     0.022200000000     0.793500000000    -0.297309   
O        O      0.870900000000     0.849900000000     0.791200000000    -0.297309   
O        O      0.792600000000     0.643100000000     0.576600000000    -0.297309   
O        O      0.951400000000     0.599300000000     0.550900000000    -0.297309   
O        O      0.309200000000     0.856800000000     0.992800000000    -0.297309   
O        O      0.740900000000     0.759200000000     0.706500000000    -0.297309   
O        O      0.208000000000     0.858300000000     0.150500000000    -0.297309   
O        O      0.023400000000     0.846600000000     0.186200000000    -0.297309   
O        O      0.227300000000     0.868500000000     0.885300000000    -0.297309   
O        O      0.367600000000     0.477800000000     0.293500000000    -0.297309   
O        O      0.629100000000     0.650100000000     0.291200000000    -0.297309   
O        O      0.707400000000     0.856900000000     0.076600000000    -0.297309   
O        O      0.548600000000     0.900700000000     0.050900000000    -0.297309   
O        O      0.190800000000     0.643200000000     0.492800000000    -0.297309   
O        O      0.759100000000     0.740800000000     0.206500000000    -0.297309   
O        O      0.292000000000     0.641700000000     0.650500000000    -0.297309   
O        O      0.476600000000     0.653400000000     0.686200000000    -0.297309   
O        O      0.272700000000     0.631500000000     0.385300000000    -0.297309   


