data_WOGHEG_original

_audit_creation_method RASPA-1.0
_audit_creation_date 2022-1-29
_audit_author_name 'Felipe Lopes de Oliveira <felipe.lopes.oliveira@ibm.com>'

_cell_length_a    7.9273
_cell_length_b    10.556
_cell_length_c    13.155
_cell_angle_alpha 107.26
_cell_angle_beta  107.06
_cell_angle_gamma 90.65
_cell_volume      999.136

_symmetry_cell_setting          triclinic
_symmetry_space_group_name_Hall 'P 1'
_symmetry_space_group_name_H-M  'P 1'
_symmetry_Int_Tables_number     1

_symmetry_equiv_pos_as_xyz 'x,y,z'

loop_
_atom_site_label
_atom_site_type_symbol
_atom_site_fract_x
_atom_site_fract_y
_atom_site_fract_z
_atom_site_charge
Zn       Zn     0.273830000000     0.954630000000     0.701830000000     0.463554   
Zn       Zn     0.614270000000     0.129230000000     0.822060000000     0.463554   
H        H      0.550200000000     0.158600000000     0.140600000000     0.0675485  
H        H      0.566000000000     0.151800000000     0.322600000000     0.0675485  
H        H      0.238100000000     0.841500000000     0.176100000000     0.0675485  
H        H      0.219600000000     0.849400000000     0.005800000000     0.0675485  
H        H      0.306700000000     0.932800000000     0.381900000000     0.0675485  
H        H      0.579700000000     0.140400000000     0.460900000000     0.0675485  
H        H      0.240300000000     0.452100000000     0.802800000000     0.0675485  
H        H      0.918100000000     0.285900000000     0.728800000000     0.0675485  
H        H      0.125200000000     0.627300000000     0.811500000000     0.0675485  
H        H      0.950600000000     0.807600000000     0.818300000000     0.0675485  
H        H      0.507000000000     0.575600000000     0.690200000000     0.0675485  
H        H      0.664900000000     0.396200000000     0.697200000000     0.0675485  
H        H      0.712800000000     0.395300000000     0.996300000000     0.0675485  
H        H      0.964300000000     0.530000000000     0.124700000000     0.0675485  
H        H      0.268400000000     0.246400000000     0.026200000000     0.0675485  
H        H      0.017000000000     0.111600000000     0.897900000000     0.0675485  
H        H      0.620600000000     0.821400000000     0.507300000000     0.0675485  
H        H      0.872300000000     0.944900000000     0.645100000000     0.0675485  
H        H      0.178900000000     0.701400000000     0.499300000000     0.0675485  
H        H      0.927200000000     0.578000000000     0.361500000000     0.0675485  
C        C      0.393000000000     0.017000000000     0.943600000000     0.0219844  
C        C      0.391000000000     0.006000000000     0.046800000000     0.0219844  
C        C      0.482000000000     0.088000000000     0.143300000000     0.0219844  
C        C      0.492000000000     0.087000000000     0.260200000000     0.0219844  
C        C      0.392000000000     0.989000000000     0.274500000000     0.0219844  
C        C      0.307000000000     0.913200000000     0.176200000000     0.0219844  
C        C      0.296000000000     0.914900000000     0.066700000000     0.0219844  
C        C      0.388000000000     0.991000000000     0.375000000000     0.0219844  
C        C      0.502000000000     0.079000000000     0.467300000000     0.0219844  
C        C      0.501000000000     0.076000000000     0.589500000000     0.0219844  
C        C      0.279000000000     0.249400000000     0.779500000000     0.0219844  
C        C      0.175000000000     0.369200000000     0.780000000000     0.0219844  
C        C      0.988000000000     0.366000000000     0.748900000000     0.0219844  
C        C      0.909000000000     0.485000000000     0.748600000000     0.0219844  
C        C      0.002000000000     0.613200000000     0.787000000000     0.0219844  
C        C      0.891000000000     0.722000000000     0.785000000000     0.0219844  
C        C      0.715000000000     0.714100000000     0.741300000000     0.0219844  
C        C      0.620000000000     0.832000000000     0.747200000000     0.0219844  
C        C      0.630300000000     0.588400000000     0.712700000000     0.0219844  
C        C      0.728000000000     0.479200000000     0.717200000000     0.0219844  
C        C      0.824200000000     0.365400000000     0.002300000000     0.0219844  
C        C      0.974800000000     0.446100000000     0.079200000000     0.0219844  
C        C      0.141300000000     0.401500000000     0.088200000000     0.0219844  
C        C      0.157100000000     0.276200000000     0.020200000000     0.0219844  
C        C      0.006400000000     0.195500000000     0.943400000000     0.0219844  
C        C      0.304800000000     0.482700000000     0.171600000000     0.0219844  
C        C      0.611100000000     0.631600000000     0.330700000000     0.0219844  
C        C      0.749000000000     0.687400000000     0.420700000000     0.0219844  
C        C      0.732500000000     0.797400000000     0.505700000000     0.0219844  
C        C      0.883300000000     0.871300000000     0.588300000000     0.0219844  
C        C      0.067000000000     0.725500000000     0.500900000000     0.0219844  
C        C      0.916200000000     0.651500000000     0.418300000000     0.0219844  
N        N      0.840000000000     0.240100000000     0.934400000000    -0.105812   
N        N      0.467300000000     0.431200000000     0.181500000000    -0.105812   
N        N      0.620500000000     0.505600000000     0.261100000000    -0.105812   
N        N      0.448600000000     0.683100000000     0.320700000000    -0.105812   
N        N      0.295400000000     0.608700000000     0.241100000000    -0.105812   
N        N      0.050600000000     0.835400000000     0.585900000000    -0.105812   
O        O      0.524000000000     0.081200000000     0.940100000000    -0.293338   
O        O      0.260000000000     0.950100000000     0.852600000000    -0.293338   
O        O      0.619000000000     0.137600000000     0.667700000000    -0.293338   
O        O      0.373000000000     0.994000000000     0.584100000000    -0.293338   
O        O      0.442000000000     0.273400000000     0.818500000000    -0.293338   
O        O      0.177200000000     0.135600000000     0.736000000000    -0.293338   
O        O      0.701000000000     0.946100000000     0.793300000000    -0.293338   
O        O      0.449800000000     0.817600000000     0.704700000000    -0.293338   


