data_WONZUV_original

_audit_creation_method RASPA-1.0
_audit_creation_date 2022-1-30
_audit_author_name 'Felipe Lopes de Oliveira <felipe.lopes.oliveira@ibm.com>'

_cell_length_a    15.0937
_cell_length_b    17.328
_cell_length_c    17.328
_cell_angle_alpha 79.0656
_cell_angle_beta  64.1811
_cell_angle_gamma 64.1811
_cell_volume      3672.37

_symmetry_cell_setting          triclinic
_symmetry_space_group_name_Hall 'P 1'
_symmetry_space_group_name_H-M  'P 1'
_symmetry_Int_Tables_number     1

_symmetry_equiv_pos_as_xyz 'x,y,z'

loop_
_atom_site_label
_atom_site_type_symbol
_atom_site_fract_x
_atom_site_fract_y
_atom_site_fract_z
_atom_site_charge
Zn       Zn     0.750000000000     0.000000000000     0.000000000000     0.615554   
Zn       Zn     0.250000000000     0.000000000000     0.000000000000     0.615554   
Si       Si     0.000000000000     0.000000000000     0.000000000000     3.40554    
Si       Si     0.500000000000     0.000000000000     0.000000000000     3.40554    
H        H      0.966700000000     0.850900000000     0.928500000000     0.0677984  
H        H      0.046800000000     0.701100000000     0.923700000000     0.0677984  
H        H      0.058400000000     0.576200000000     0.876800000000     0.0677984  
H        H      0.746100000000     0.149100000000     0.071500000000     0.0677984  
H        H      0.671600000000     0.298900000000     0.076300000000     0.0677984  
H        H      0.511400000000     0.423800000000     0.123200000000     0.0677984  
H        H      0.895200000000     0.071500000000     0.850900000000     0.0677984  
H        H      0.970500000000     0.076300000000     0.701100000000     0.0677984  
H        H      0.935200000000     0.123200000000     0.576200000000     0.0677984  
H        H      0.817600000000     0.928500000000     0.149100000000     0.0677984  
H        H      0.747900000000     0.923700000000     0.298900000000     0.0677984  
H        H      0.634600000000     0.876800000000     0.423800000000     0.0677984  
H        H      0.753900000000     0.928500000000     0.850900000000     0.0677984  
H        H      0.828400000000     0.923700000000     0.701100000000     0.0677984  
H        H      0.988600000000     0.876800000000     0.576200000000     0.0677984  
H        H      0.533300000000     0.071500000000     0.149100000000     0.0677984  
H        H      0.453200000000     0.076300000000     0.298900000000     0.0677984  
H        H      0.441600000000     0.123200000000     0.423800000000     0.0677984  
H        H      0.682400000000     0.850900000000     0.071500000000     0.0677984  
H        H      0.752100000000     0.701100000000     0.076300000000     0.0677984  
H        H      0.865400000000     0.576200000000     0.123200000000     0.0677984  
H        H      0.604800000000     0.149100000000     0.928500000000     0.0677984  
H        H      0.529500000000     0.298900000000     0.923700000000     0.0677984  
H        H      0.564800000000     0.423800000000     0.876800000000     0.0677984  
H        H      0.033300000000     0.149100000000     0.071500000000     0.0677984  
H        H      0.953200000000     0.298900000000     0.076300000000     0.0677984  
H        H      0.941600000000     0.423800000000     0.123200000000     0.0677984  
H        H      0.253900000000     0.850900000000     0.928500000000     0.0677984  
H        H      0.328400000000     0.701100000000     0.923700000000     0.0677984  
H        H      0.488600000000     0.576200000000     0.876800000000     0.0677984  
H        H      0.104800000000     0.928500000000     0.149100000000     0.0677984  
H        H      0.029500000000     0.923700000000     0.298900000000     0.0677984  
H        H      0.064800000000     0.876800000000     0.423800000000     0.0677984  
H        H      0.182400000000     0.071500000000     0.850900000000     0.0677984  
H        H      0.252100000000     0.076300000000     0.701100000000     0.0677984  
H        H      0.365400000000     0.123200000000     0.576200000000     0.0677984  
H        H      0.246100000000     0.071500000000     0.149100000000     0.0677984  
H        H      0.171600000000     0.076300000000     0.298900000000     0.0677984  
H        H      0.011400000000     0.123200000000     0.423800000000     0.0677984  
H        H      0.466700000000     0.928500000000     0.850900000000     0.0677984  
H        H      0.546800000000     0.923700000000     0.701100000000     0.0677984  
H        H      0.558400000000     0.876800000000     0.576200000000     0.0677984  
H        H      0.317600000000     0.149100000000     0.928500000000     0.0677984  
H        H      0.247900000000     0.298900000000     0.923700000000     0.0677984  
H        H      0.134600000000     0.423800000000     0.876800000000     0.0677984  
H        H      0.395200000000     0.850900000000     0.071500000000     0.0677984  
H        H      0.470500000000     0.701100000000     0.076300000000     0.0677984  
H        H      0.435200000000     0.576200000000     0.123200000000     0.0677984  
C        C      0.922700000000     0.819890000000     0.958110000000    -0.00672577 
C        C      0.971870000000     0.730220000000     0.955240000000    -0.00672577 
C        C      0.033700000000     0.545900000000     0.927700000000    -0.00672577 
C        C      0.700700000000     0.180110000000     0.041890000000    -0.00672577 
C        C      0.657330000000     0.269780000000     0.044760000000    -0.00672577 
C        C      0.507300000000     0.454100000000     0.072300000000    -0.00672577 
C        C      0.880810000000     0.041890000000     0.819890000000    -0.00672577 
C        C      0.927110000000     0.044760000000     0.730220000000    -0.00672577 
C        C      0.961400000000     0.072300000000     0.545900000000    -0.00672577 
C        C      0.742590000000     0.958110000000     0.180110000000    -0.00672577 
C        C      0.702090000000     0.955240000000     0.269780000000    -0.00672577 
C        C      0.579600000000     0.927700000000     0.454100000000    -0.00672577 
C        C      0.799300000000     0.958110000000     0.819890000000    -0.00672577 
C        C      0.842670000000     0.955240000000     0.730220000000    -0.00672577 
C        C      0.992700000000     0.927700000000     0.545900000000    -0.00672577 
C        C      0.577300000000     0.041890000000     0.180110000000    -0.00672577 
C        C      0.528130000000     0.044760000000     0.269780000000    -0.00672577 
C        C      0.466300000000     0.072300000000     0.454100000000    -0.00672577 
C        C      0.757410000000     0.819890000000     0.041890000000    -0.00672577 
C        C      0.797910000000     0.730220000000     0.044760000000    -0.00672577 
C        C      0.920400000000     0.545900000000     0.072300000000    -0.00672577 
C        C      0.619190000000     0.180110000000     0.958110000000    -0.00672577 
C        C      0.572890000000     0.269780000000     0.955240000000    -0.00672577 
C        C      0.538600000000     0.454100000000     0.927700000000    -0.00672577 
C        C      0.077300000000     0.180110000000     0.041890000000    -0.00672577 
C        C      0.028130000000     0.269780000000     0.044760000000    -0.00672577 
C        C      0.966300000000     0.454100000000     0.072300000000    -0.00672577 
C        C      0.299300000000     0.819890000000     0.958110000000    -0.00672577 
C        C      0.342670000000     0.730220000000     0.955240000000    -0.00672577 
C        C      0.492700000000     0.545900000000     0.927700000000    -0.00672577 
C        C      0.119190000000     0.958110000000     0.180110000000    -0.00672577 
C        C      0.072890000000     0.955240000000     0.269780000000    -0.00672577 
C        C      0.038600000000     0.927700000000     0.454100000000    -0.00672577 
C        C      0.257410000000     0.041890000000     0.819890000000    -0.00672577 
C        C      0.297910000000     0.044760000000     0.730220000000    -0.00672577 
C        C      0.420400000000     0.072300000000     0.545900000000    -0.00672577 
C        C      0.200700000000     0.041890000000     0.180110000000    -0.00672577 
C        C      0.157330000000     0.044760000000     0.269780000000    -0.00672577 
C        C      0.007300000000     0.072300000000     0.454100000000    -0.00672577 
C        C      0.422700000000     0.958110000000     0.819890000000    -0.00672577 
C        C      0.471870000000     0.955240000000     0.730220000000    -0.00672577 
C        C      0.533700000000     0.927700000000     0.545900000000    -0.00672577 
C        C      0.242590000000     0.180110000000     0.958110000000    -0.00672577 
C        C      0.202090000000     0.269780000000     0.955240000000    -0.00672577 
C        C      0.079600000000     0.454100000000     0.927700000000    -0.00672577 
C        C      0.380810000000     0.819890000000     0.041890000000    -0.00672577 
C        C      0.427110000000     0.730220000000     0.044760000000    -0.00672577 
C        C      0.461400000000     0.545900000000     0.072300000000    -0.00672577 
C        C      0.907310000000     0.685380000000     0.000000000000    -0.00672577 
C        C      0.955140000000     0.589720000000     0.000000000000    -0.00672577 
C        C      0.592690000000     0.314620000000     0.000000000000    -0.00672577 
C        C      0.544860000000     0.410280000000     0.000000000000    -0.00672577 
C        C      0.907310000000     0.000000000000     0.685380000000    -0.00672577 
C        C      0.955140000000     0.000000000000     0.589720000000    -0.00672577 
C        C      0.592690000000     0.000000000000     0.314620000000    -0.00672577 
C        C      0.544860000000     0.000000000000     0.410280000000    -0.00672577 
C        C      0.092690000000     0.314620000000     0.000000000000    -0.00672577 
C        C      0.044860000000     0.410280000000     0.000000000000    -0.00672577 
C        C      0.407310000000     0.685380000000     0.000000000000    -0.00672577 
C        C      0.455140000000     0.589720000000     0.000000000000    -0.00672577 
C        C      0.092690000000     0.000000000000     0.314620000000    -0.00672577 
C        C      0.044860000000     0.000000000000     0.410280000000    -0.00672577 
C        C      0.407310000000     0.000000000000     0.685380000000    -0.00672577 
C        C      0.455140000000     0.000000000000     0.589720000000    -0.00672577 
N        N      0.817870000000     0.864260000000     0.000000000000    -0.147632   
N        N      0.682130000000     0.135740000000     0.000000000000    -0.147632   
N        N      0.817870000000     0.000000000000     0.864260000000    -0.147632   
N        N      0.682130000000     0.000000000000     0.135740000000    -0.147632   
N        N      0.182130000000     0.135740000000     0.000000000000    -0.147632   
N        N      0.317870000000     0.864260000000     0.000000000000    -0.147632   
N        N      0.182130000000     0.000000000000     0.135740000000    -0.147632   
N        N      0.317870000000     0.000000000000     0.864260000000    -0.147632   
F        F      0.927230000000     0.054920000000     0.090620000000    -0.807084   
F        F      0.072770000000     0.945080000000     0.909380000000    -0.807084   
F        F      0.017850000000     0.909380000000     0.054920000000    -0.807084   
F        F      0.982150000000     0.090620000000     0.945080000000    -0.807084   
F        F      0.427230000000     0.090620000000     0.054920000000    -0.807084   
F        F      0.572770000000     0.909380000000     0.945080000000    -0.807084   
F        F      0.517850000000     0.054920000000     0.909380000000    -0.807084   
F        F      0.482150000000     0.945080000000     0.090620000000    -0.807084   
F        F      0.886600000000     0.000000000000     0.000000000000    -0.807084   
F        F      0.613400000000     0.000000000000     0.000000000000    -0.807084   
F        F      0.113400000000     0.000000000000     0.000000000000    -0.807084   
F        F      0.386600000000     0.000000000000     0.000000000000    -0.807084   


