data_WONZOP_original

_audit_creation_method RASPA-1.0
_audit_creation_date 2022-1-31
_audit_author_name 'Felipe Lopes de Oliveira <felipe.lopes.oliveira@ibm.com>'

_cell_length_a    15.0666
_cell_length_b    15.7706
_cell_length_c    15.7706
_cell_angle_alpha 76.8103
_cell_angle_beta  61.4661
_cell_angle_gamma 61.4661
_cell_volume      2892.21

_symmetry_cell_setting          triclinic
_symmetry_space_group_name_Hall 'P 1'
_symmetry_space_group_name_H-M  'P 1'
_symmetry_Int_Tables_number     1

_symmetry_equiv_pos_as_xyz 'x,y,z'

loop_
_atom_site_label
_atom_site_type_symbol
_atom_site_fract_x
_atom_site_fract_y
_atom_site_fract_z
_atom_site_charge
Zn       Zn     0.250000000000     0.000000000000     0.000000000000     0.612705   
Zn       Zn     0.750000000000     0.000000000000     0.000000000000     0.612705   
Si       Si     0.000000000000     0.000000000000     0.000000000000     3.3332     
Si       Si     0.500000000000     0.000000000000     0.000000000000     3.3332     
H        H      0.237600000000     0.167900000000     0.076900000000     0.0813308  
H        H      0.154800000000     0.335500000000     0.079500000000     0.0813308  
H        H      0.482400000000     0.832100000000     0.923100000000     0.0813308  
H        H      0.569800000000     0.664500000000     0.920500000000     0.0813308  
H        H      0.314500000000     0.923100000000     0.167900000000     0.0813308  
H        H      0.234300000000     0.920500000000     0.335500000000     0.0813308  
H        H      0.405500000000     0.076900000000     0.832100000000     0.0813308  
H        H      0.490300000000     0.079500000000     0.664500000000     0.0813308  
H        H      0.017600000000     0.076900000000     0.167900000000     0.0813308  
H        H      0.930200000000     0.079500000000     0.335500000000     0.0813308  
H        H      0.262400000000     0.923100000000     0.832100000000     0.0813308  
H        H      0.345200000000     0.920500000000     0.664500000000     0.0813308  
H        H      0.094500000000     0.167900000000     0.923100000000     0.0813308  
H        H      0.009700000000     0.335500000000     0.920500000000     0.0813308  
H        H      0.185500000000     0.832100000000     0.076900000000     0.0813308  
H        H      0.265700000000     0.664500000000     0.079500000000     0.0813308  
H        H      0.762400000000     0.832100000000     0.923100000000     0.0813308  
H        H      0.845200000000     0.664500000000     0.920500000000     0.0813308  
H        H      0.517600000000     0.167900000000     0.076900000000     0.0813308  
H        H      0.430200000000     0.335500000000     0.079500000000     0.0813308  
H        H      0.685500000000     0.076900000000     0.832100000000     0.0813308  
H        H      0.765700000000     0.079500000000     0.664500000000     0.0813308  
H        H      0.594500000000     0.923100000000     0.167900000000     0.0813308  
H        H      0.509700000000     0.920500000000     0.335500000000     0.0813308  
H        H      0.982400000000     0.923100000000     0.832100000000     0.0813308  
H        H      0.069800000000     0.920500000000     0.664500000000     0.0813308  
H        H      0.737600000000     0.076900000000     0.167900000000     0.0813308  
H        H      0.654800000000     0.079500000000     0.335500000000     0.0813308  
H        H      0.905500000000     0.832100000000     0.076900000000     0.0813308  
H        H      0.990300000000     0.664500000000     0.079500000000     0.0813308  
H        H      0.814500000000     0.167900000000     0.923100000000     0.0813308  
H        H      0.734300000000     0.335500000000     0.920500000000     0.0813308  
C        C      0.190400000000     0.202600000000     0.045000000000     0.00499644 
C        C      0.141600000000     0.302400000000     0.046600000000     0.00499644 
C        C      0.438000000000     0.797400000000     0.955000000000     0.00499644 
C        C      0.490600000000     0.697600000000     0.953400000000     0.00499644 
C        C      0.235400000000     0.955000000000     0.202600000000     0.00499644 
C        C      0.188200000000     0.953400000000     0.302400000000     0.00499644 
C        C      0.393000000000     0.045000000000     0.797400000000     0.00499644 
C        C      0.444000000000     0.046600000000     0.697600000000     0.00499644 
C        C      0.062000000000     0.045000000000     0.202600000000     0.00499644 
C        C      0.009400000000     0.046600000000     0.302400000000     0.00499644 
C        C      0.309600000000     0.955000000000     0.797400000000     0.00499644 
C        C      0.358400000000     0.953400000000     0.697600000000     0.00499644 
C        C      0.107000000000     0.202600000000     0.955000000000     0.00499644 
C        C      0.056000000000     0.302400000000     0.953400000000     0.00499644 
C        C      0.264600000000     0.797400000000     0.045000000000     0.00499644 
C        C      0.311800000000     0.697600000000     0.046600000000     0.00499644 
C        C      0.809600000000     0.797400000000     0.955000000000     0.00499644 
C        C      0.858400000000     0.697600000000     0.953400000000     0.00499644 
C        C      0.562000000000     0.202600000000     0.045000000000     0.00499644 
C        C      0.509400000000     0.302400000000     0.046600000000     0.00499644 
C        C      0.764600000000     0.045000000000     0.797400000000     0.00499644 
C        C      0.811800000000     0.046600000000     0.697600000000     0.00499644 
C        C      0.607000000000     0.955000000000     0.202600000000     0.00499644 
C        C      0.556000000000     0.953400000000     0.302400000000     0.00499644 
C        C      0.938000000000     0.955000000000     0.797400000000     0.00499644 
C        C      0.990600000000     0.953400000000     0.697600000000     0.00499644 
C        C      0.690400000000     0.045000000000     0.202600000000     0.00499644 
C        C      0.641600000000     0.046600000000     0.302400000000     0.00499644 
C        C      0.893000000000     0.797400000000     0.045000000000     0.00499644 
C        C      0.944000000000     0.697600000000     0.046600000000     0.00499644 
C        C      0.735400000000     0.202600000000     0.955000000000     0.00499644 
C        C      0.688200000000     0.302400000000     0.953400000000     0.00499644 
C        C      0.073300000000     0.353400000000     0.000000000000     0.00499644 
C        C      0.020900000000     0.458200000000     0.000000000000     0.00499644 
C        C      0.426700000000     0.646600000000     0.000000000000     0.00499644 
C        C      0.479100000000     0.541800000000     0.000000000000     0.00499644 
C        C      0.073300000000     0.000000000000     0.353400000000     0.00499644 
C        C      0.020900000000     0.000000000000     0.458200000000     0.00499644 
C        C      0.426700000000     0.000000000000     0.646600000000     0.00499644 
C        C      0.479100000000     0.000000000000     0.541800000000     0.00499644 
C        C      0.926700000000     0.646600000000     0.000000000000     0.00499644 
C        C      0.979100000000     0.541800000000     0.000000000000     0.00499644 
C        C      0.573300000000     0.353400000000     0.000000000000     0.00499644 
C        C      0.520900000000     0.458200000000     0.000000000000     0.00499644 
C        C      0.926700000000     0.000000000000     0.646600000000     0.00499644 
C        C      0.979100000000     0.000000000000     0.541800000000     0.00499644 
C        C      0.573300000000     0.000000000000     0.353400000000     0.00499644 
C        C      0.520900000000     0.000000000000     0.458200000000     0.00499644 
N        N      0.173300000000     0.153400000000     0.000000000000    -0.149633   
N        N      0.326700000000     0.846600000000     0.000000000000    -0.149633   
N        N      0.173300000000     0.000000000000     0.153400000000    -0.149633   
N        N      0.326700000000     0.000000000000     0.846600000000    -0.149633   
N        N      0.826700000000     0.846600000000     0.000000000000    -0.149633   
N        N      0.673300000000     0.153400000000     0.000000000000    -0.149633   
N        N      0.826700000000     0.000000000000     0.846600000000    -0.149633   
N        N      0.673300000000     0.000000000000     0.153400000000    -0.149633   
F        F      0.112700000000     0.000000000000     0.000000000000    -0.794763   
F        F      0.387300000000     0.000000000000     0.000000000000    -0.794763   
F        F      0.887300000000     0.000000000000     0.000000000000    -0.794763   
F        F      0.612700000000     0.000000000000     0.000000000000    -0.794763   
F        F      0.981600000000     0.935300000000     0.101500000000    -0.794763   
F        F      0.018400000000     0.064700000000     0.898500000000    -0.794763   
F        F      0.083100000000     0.898500000000     0.935300000000    -0.794763   
F        F      0.916900000000     0.101500000000     0.064700000000    -0.794763   
F        F      0.481600000000     0.101500000000     0.935300000000    -0.794763   
F        F      0.518400000000     0.898500000000     0.064700000000    -0.794763   
F        F      0.583100000000     0.935300000000     0.898500000000    -0.794763   
F        F      0.416900000000     0.064700000000     0.101500000000    -0.794763   


