data_WOWGEU_original

_audit_creation_method RASPA-1.0
_audit_creation_date 2022-2-1
_audit_author_name 'Felipe Lopes de Oliveira <felipe.lopes.oliveira@ibm.com>'

_cell_length_a    4.978
_cell_length_b    8.189
_cell_length_c    12
_cell_angle_alpha 90
_cell_angle_beta  90
_cell_angle_gamma 91.97
_cell_volume      488.889

_symmetry_cell_setting          triclinic
_symmetry_space_group_name_Hall 'P 1'
_symmetry_space_group_name_H-M  'P 1'
_symmetry_Int_Tables_number     1

_symmetry_equiv_pos_as_xyz 'x,y,z'

loop_
_atom_site_label
_atom_site_type_symbol
_atom_site_fract_x
_atom_site_fract_y
_atom_site_fract_z
_atom_site_charge
Al       Al     0.500000000000     0.000000000000     0.500000000000     5.86056    
Al       Al     0.500000000000     0.000000000000     0.000000000000     5.86056    
Al       Al     0.758400000000     0.855100000000     0.750000000000     5.86056    
Al       Al     0.241600000000     0.144900000000     0.250000000000     5.86056    
P        P      0.994800000000     0.767800000000     0.514740000000     1.03486    
P        P      0.005200000000     0.232200000000     0.014740000000     1.03486    
P        P      0.005200000000     0.232200000000     0.485260000000     1.03486    
P        P      0.994800000000     0.767800000000     0.985260000000     1.03486    
H        H      0.964300000000     0.557000000000     0.388300000000     0.01218    
H        H      0.725300000000     0.539000000000     0.481300000000     0.01218    
H        H      0.035700000000     0.443000000000     0.888300000000     0.01218    
H        H      0.274700000000     0.461000000000     0.981300000000     0.01218    
H        H      0.035700000000     0.443000000000     0.611700000000     0.01218    
H        H      0.274700000000     0.461000000000     0.518700000000     0.01218    
H        H      0.964300000000     0.557000000000     0.111700000000     0.01218    
H        H      0.725300000000     0.539000000000     0.018700000000     0.01218    
C        C      0.921300000000     0.564000000000     0.469300000000    -0.209165   
C        C      0.078700000000     0.436000000000     0.969300000000    -0.209165   
C        C      0.078700000000     0.436000000000     0.530700000000    -0.209165   
C        C      0.921300000000     0.564000000000     0.030700000000    -0.209165   
O        O      0.964200000000     0.767000000000     0.641600000000    -1.51372    
O        O      0.797000000000     0.880800000000     0.456700000000    -1.51372    
O        O      0.283600000000     0.807200000000     0.480900000000    -1.51372    
O        O      0.035800000000     0.233000000000     0.141600000000    -1.51372    
O        O      0.203000000000     0.119200000000     0.956700000000    -1.51372    
O        O      0.716400000000     0.192800000000     0.980900000000    -1.51372    
O        O      0.035800000000     0.233000000000     0.358400000000    -1.51372    
O        O      0.203000000000     0.119200000000     0.543300000000    -1.51372    
O        O      0.716400000000     0.192800000000     0.519100000000    -1.51372    
O        O      0.964200000000     0.767000000000     0.858400000000    -1.51372    
O        O      0.797000000000     0.880800000000     0.043300000000    -1.51372    
O        O      0.283600000000     0.807200000000     0.019100000000    -1.51372    
F        F      0.547000000000     0.952300000000     0.646900000000    -2.16947    
F        F      0.453000000000     0.047700000000     0.146900000000    -2.16947    
F        F      0.453000000000     0.047700000000     0.353100000000    -2.16947    
F        F      0.547000000000     0.952300000000     0.853100000000    -2.16947    


