data_WUCRUH_original

_audit_creation_method RASPA-1.0
_audit_creation_date 2022-1-31
_audit_author_name 'Felipe Lopes de Oliveira <felipe.lopes.oliveira@ibm.com>'

_cell_length_a    7.1062
_cell_length_b    9.7367
_cell_length_c    9.859
_cell_angle_alpha 60.4095
_cell_angle_beta  84.1515
_cell_angle_gamma 78.0911
_cell_volume      580.418

_symmetry_cell_setting          triclinic
_symmetry_space_group_name_Hall 'P 1'
_symmetry_space_group_name_H-M  'P 1'
_symmetry_Int_Tables_number     1

_symmetry_equiv_pos_as_xyz 'x,y,z'

loop_
_atom_site_label
_atom_site_type_symbol
_atom_site_fract_x
_atom_site_fract_y
_atom_site_fract_z
_atom_site_charge
Fe       Fe     0.431610000000     0.356850000000     0.676900000000     0.800722   
Fe       Fe     0.568390000000     0.966250000000     0.676900000000     0.800722   
Fe       Fe     0.000000000000     0.336390000000     0.327220000000     0.800722   
H        H      0.284100000000     0.157100000000     0.092000000000     0.0235084  
H        H      0.251500000000     0.753800000000     0.498800000000     0.0235084  
H        H      0.211000000000     0.758500000000     0.093400000000     0.0235084  
H        H      0.715900000000     0.750900000000     0.092000000000     0.0235084  
H        H      0.748500000000     0.747400000000     0.498800000000     0.0235084  
H        H      0.789000000000     0.148100000000     0.093400000000     0.0235084  
C        C      0.274300000000     0.968200000000     0.309000000000     0.105072   
C        C      0.215600000000     0.731800000000     0.309800000000     0.105072   
C        C      0.255800000000     0.966700000000     0.067800000000     0.105072   
C        C      0.273300000000     0.049200000000     0.147200000000     0.105072   
C        C      0.282700000000     0.043800000000     0.894400000000     0.105072   
C        C      0.247700000000     0.808800000000     0.390400000000     0.105072   
C        C      0.176800000000     0.565000000000     0.395000000000     0.105072   
C        C      0.321400000000     0.045100000000     0.399200000000     0.105072   
C        C      0.225300000000     0.811100000000     0.148000000000     0.105072   
C        C      0.725700000000     0.722800000000     0.309000000000     0.105072   
C        C      0.784400000000     0.958400000000     0.309800000000     0.105072   
C        C      0.744200000000     0.965500000000     0.067800000000     0.105072   
C        C      0.726700000000     0.803600000000     0.147200000000     0.105072   
C        C      0.717300000000     0.061800000000     0.894400000000     0.105072   
C        C      0.752300000000     0.800800000000     0.390400000000     0.105072   
C        C      0.823200000000     0.040000000000     0.395000000000     0.105072   
C        C      0.678600000000     0.555700000000     0.399200000000     0.105072   
C        C      0.774700000000     0.040900000000     0.148000000000     0.105072   
O        O      0.174600000000     0.492200000000     0.543400000000    -0.341117   
O        O      0.398700000000     0.952000000000     0.529800000000    -0.341117   
O        O      0.284100000000     0.196100000000     0.339000000000    -0.341117   
O        O      0.257800000000     0.194000000000     0.816400000000    -0.341117   
O        O      0.145600000000     0.505700000000     0.313000000000    -0.341117   
O        O      0.332500000000     0.953300000000     0.835600000000    -0.341117   
O        O      0.825400000000     0.964400000000     0.543400000000    -0.341117   
O        O      0.601300000000     0.518200000000     0.529800000000    -0.341117   
O        O      0.715900000000     0.464900000000     0.339000000000    -0.341117   
O        O      0.742200000000     0.989600000000     0.816400000000    -0.341117   
O        O      0.854400000000     0.181300000000     0.313000000000    -0.341117   
O        O      0.667500000000     0.211100000000     0.835600000000    -0.341117   
O        O      0.500000000000     0.236200000000     0.527600000000    -0.341117   


