data_XADCOW_original

_audit_creation_method RASPA-1.0
_audit_creation_date 2022-1-31
_audit_author_name 'Felipe Lopes de Oliveira <felipe.lopes.oliveira@ibm.com>'

_cell_length_a    6.8883
_cell_length_b    21.2918
_cell_length_c    21.2918
_cell_angle_alpha 119.971
_cell_angle_beta  90
_cell_angle_gamma 90
_cell_volume      2705.17

_symmetry_cell_setting          triclinic
_symmetry_space_group_name_Hall 'P 1'
_symmetry_space_group_name_H-M  'P 1'
_symmetry_Int_Tables_number     1

_symmetry_equiv_pos_as_xyz 'x,y,z'

loop_
_atom_site_label
_atom_site_type_symbol
_atom_site_fract_x
_atom_site_fract_y
_atom_site_fract_z
_atom_site_charge
Fe       Fe     0.500000000000     0.000000000000     0.000000000000     1.04521    
Fe       Fe     0.000000000000     0.000000000000     0.000000000000     1.04521    
Fe       Fe     0.500000000000     0.500000000000     0.000000000000     1.04521    
Fe       Fe     0.000000000000     0.500000000000     0.000000000000     1.04521    
Fe       Fe     0.000000000000     0.000000000000     0.500000000000     1.04521    
Fe       Fe     0.500000000000     0.000000000000     0.500000000000     1.04521    
H        H      0.539300000000     0.320000000000     0.787200000000     0.0592003  
H        H      0.961800000000     0.786500000000     0.963700000000     0.0592003  
H        H      0.958500000000     0.678800000000     0.964400000000     0.0592003  
H        H      0.039300000000     0.680000000000     0.212800000000     0.0592003  
H        H      0.461800000000     0.213500000000     0.036300000000     0.0592003  
H        H      0.458500000000     0.321200000000     0.035600000000     0.0592003  
H        H      0.960700000000     0.212800000000     0.680000000000     0.0592003  
H        H      0.538200000000     0.036300000000     0.213500000000     0.0592003  
H        H      0.541500000000     0.035600000000     0.321200000000     0.0592003  
H        H      0.460700000000     0.787200000000     0.320000000000     0.0592003  
H        H      0.038200000000     0.963700000000     0.786500000000     0.0592003  
H        H      0.041500000000     0.964400000000     0.678800000000     0.0592003  
H        H      0.460700000000     0.680000000000     0.212800000000     0.0592003  
H        H      0.038200000000     0.213500000000     0.036300000000     0.0592003  
H        H      0.041500000000     0.321200000000     0.035600000000     0.0592003  
H        H      0.960700000000     0.320000000000     0.787200000000     0.0592003  
H        H      0.538200000000     0.786500000000     0.963700000000     0.0592003  
H        H      0.541500000000     0.678800000000     0.964400000000     0.0592003  
H        H      0.039300000000     0.787200000000     0.320000000000     0.0592003  
H        H      0.461800000000     0.963700000000     0.786500000000     0.0592003  
H        H      0.458500000000     0.964400000000     0.678800000000     0.0592003  
H        H      0.539300000000     0.212800000000     0.680000000000     0.0592003  
H        H      0.961800000000     0.036300000000     0.213500000000     0.0592003  
H        H      0.958500000000     0.035600000000     0.321200000000     0.0592003  
C        C      0.422000000000     0.298300000000     0.765700000000     0.0737345  
C        C      0.078400000000     0.765200000000     0.965000000000     0.0737345  
C        C      0.076100000000     0.700800000000     0.965800000000     0.0737345  
C        C      0.922000000000     0.701700000000     0.234300000000     0.0737345  
C        C      0.578400000000     0.234800000000     0.035000000000     0.0737345  
C        C      0.576100000000     0.299200000000     0.034200000000     0.0737345  
C        C      0.078000000000     0.234300000000     0.701700000000     0.0737345  
C        C      0.421600000000     0.035000000000     0.234800000000     0.0737345  
C        C      0.423900000000     0.034200000000     0.299200000000     0.0737345  
C        C      0.578000000000     0.765700000000     0.298300000000     0.0737345  
C        C      0.921600000000     0.965000000000     0.765200000000     0.0737345  
C        C      0.923900000000     0.965800000000     0.700800000000     0.0737345  
C        C      0.578000000000     0.701700000000     0.234300000000     0.0737345  
C        C      0.921600000000     0.234800000000     0.035000000000     0.0737345  
C        C      0.923900000000     0.299200000000     0.034200000000     0.0737345  
C        C      0.078000000000     0.298300000000     0.765700000000     0.0737345  
C        C      0.421600000000     0.765200000000     0.965000000000     0.0737345  
C        C      0.423900000000     0.700800000000     0.965800000000     0.0737345  
C        C      0.922000000000     0.765700000000     0.298300000000     0.0737345  
C        C      0.578400000000     0.965000000000     0.765200000000     0.0737345  
C        C      0.576100000000     0.965800000000     0.700800000000     0.0737345  
C        C      0.422000000000     0.234300000000     0.701700000000     0.0737345  
C        C      0.078400000000     0.035000000000     0.234800000000     0.0737345  
C        C      0.076100000000     0.034200000000     0.299200000000     0.0737345  
C        C      0.250000000000     0.399200000000     0.873200000000     0.0737345  
C        C      0.250000000000     0.331000000000     0.798800000000     0.0737345  
C        C      0.250000000000     0.871500000000     0.970300000000     0.0737345  
C        C      0.250000000000     0.798300000000     0.966300000000     0.0737345  
C        C      0.250000000000     0.668900000000     0.968500000000     0.0737345  
C        C      0.250000000000     0.602000000000     0.976600000000     0.0737345  
C        C      0.750000000000     0.600800000000     0.126800000000     0.0737345  
C        C      0.750000000000     0.669000000000     0.201200000000     0.0737345  
C        C      0.750000000000     0.128500000000     0.029700000000     0.0737345  
C        C      0.750000000000     0.201700000000     0.033700000000     0.0737345  
C        C      0.750000000000     0.331100000000     0.031500000000     0.0737345  
C        C      0.750000000000     0.398000000000     0.023400000000     0.0737345  
C        C      0.250000000000     0.126800000000     0.600800000000     0.0737345  
C        C      0.250000000000     0.201200000000     0.669000000000     0.0737345  
C        C      0.250000000000     0.029700000000     0.128500000000     0.0737345  
C        C      0.250000000000     0.033700000000     0.201700000000     0.0737345  
C        C      0.250000000000     0.031500000000     0.331100000000     0.0737345  
C        C      0.250000000000     0.023400000000     0.398000000000     0.0737345  
C        C      0.750000000000     0.873200000000     0.399200000000     0.0737345  
C        C      0.750000000000     0.798800000000     0.331000000000     0.0737345  
C        C      0.750000000000     0.970300000000     0.871500000000     0.0737345  
C        C      0.750000000000     0.966300000000     0.798300000000     0.0737345  
C        C      0.750000000000     0.968500000000     0.668900000000     0.0737345  
C        C      0.750000000000     0.976600000000     0.602000000000     0.0737345  
O        O      0.412200000000     0.423970000000     0.900030000000    -0.374378   
O        O      0.413100000000     0.899470000000     0.973730000000    -0.374378   
O        O      0.413300000000     0.576880000000     0.977320000000    -0.374378   
O        O      0.912200000000     0.576030000000     0.099970000000    -0.374378   
O        O      0.913100000000     0.100530000000     0.026270000000    -0.374378   
O        O      0.913300000000     0.423120000000     0.022680000000    -0.374378   
O        O      0.087800000000     0.099970000000     0.576030000000    -0.374378   
O        O      0.086900000000     0.026270000000     0.100530000000    -0.374378   
O        O      0.086700000000     0.022680000000     0.423120000000    -0.374378   
O        O      0.587800000000     0.900030000000     0.423970000000    -0.374378   
O        O      0.586900000000     0.973730000000     0.899470000000    -0.374378   
O        O      0.586700000000     0.977320000000     0.576880000000    -0.374378   
O        O      0.587800000000     0.576030000000     0.099970000000    -0.374378   
O        O      0.586900000000     0.100530000000     0.026270000000    -0.374378   
O        O      0.586700000000     0.423120000000     0.022680000000    -0.374378   
O        O      0.087800000000     0.423970000000     0.900030000000    -0.374378   
O        O      0.086900000000     0.899470000000     0.973730000000    -0.374378   
O        O      0.086700000000     0.576880000000     0.977320000000    -0.374378   
O        O      0.912200000000     0.900030000000     0.423970000000    -0.374378   
O        O      0.913100000000     0.973730000000     0.899470000000    -0.374378   
O        O      0.913300000000     0.977320000000     0.576880000000    -0.374378   
O        O      0.412200000000     0.099970000000     0.576030000000    -0.374378   
O        O      0.413100000000     0.026270000000     0.100530000000    -0.374378   
O        O      0.413300000000     0.022680000000     0.423120000000    -0.374378   
O        O      0.750000000000     0.980100000000     0.019900000000    -0.374378   
O        O      0.250000000000     0.019900000000     0.980100000000    -0.374378   
O        O      0.750000000000     0.501500000000     0.956100000000    -0.374378   
O        O      0.250000000000     0.498500000000     0.043900000000    -0.374378   
O        O      0.750000000000     0.043900000000     0.498500000000    -0.374378   
O        O      0.250000000000     0.956100000000     0.501500000000    -0.374378   


