data_XAJQAC_original

_audit_creation_method RASPA-1.0
_audit_creation_date 2022-1-29
_audit_author_name 'Felipe Lopes de Oliveira <felipe.lopes.oliveira@ibm.com>'

_cell_length_a    14.3253
_cell_length_b    15.6323
_cell_length_c    16.1854
_cell_angle_alpha 90
_cell_angle_beta  90
_cell_angle_gamma 103.237
_cell_volume      3528.22

_symmetry_cell_setting          triclinic
_symmetry_space_group_name_Hall 'P 1'
_symmetry_space_group_name_H-M  'P 1'
_symmetry_Int_Tables_number     1

_symmetry_equiv_pos_as_xyz 'x,y,z'

loop_
_atom_site_label
_atom_site_type_symbol
_atom_site_fract_x
_atom_site_fract_y
_atom_site_fract_z
_atom_site_charge
In       In     0.000000000000     0.500000000000     0.000000000000     3.27998    
In       In     0.500000000000     0.500000000000     0.000000000000     3.27998    
In       In     0.250000000000     0.500000000000     0.008200000000     3.27998    
In       In     0.750000000000     0.500000000000     0.991800000000     3.27998    
H        H      0.151600000000     0.699700000000     0.503500000000     0.032654   
H        H      0.217400000000     0.910900000000     0.719400000000     0.032654   
H        H      0.215300000000     0.910900000000     0.287800000000     0.032654   
H        H      0.323700000000     0.676800000000     0.801800000000     0.032654   
H        H      0.325900000000     0.728100000000     0.656200000000     0.032654   
H        H      0.070700000000     0.808200000000     0.706500000000     0.032654   
H        H      0.050200000000     0.717400000000     0.833700000000     0.032654   
H        H      0.325400000000     0.673400000000     0.207500000000     0.032654   
H        H      0.329000000000     0.731400000000     0.350800000000     0.032654   
H        H      0.067000000000     0.800000000000     0.301400000000     0.032654   
H        H      0.045900000000     0.702500000000     0.178500000000     0.032654   
H        H      0.348400000000     0.300300000000     0.503500000000     0.032654   
H        H      0.282600000000     0.089100000000     0.719400000000     0.032654   
H        H      0.284700000000     0.089100000000     0.287800000000     0.032654   
H        H      0.176300000000     0.323200000000     0.801800000000     0.032654   
H        H      0.174100000000     0.271900000000     0.656200000000     0.032654   
H        H      0.429300000000     0.191800000000     0.706500000000     0.032654   
H        H      0.449800000000     0.282600000000     0.833700000000     0.032654   
H        H      0.174600000000     0.326600000000     0.207500000000     0.032654   
H        H      0.171000000000     0.268600000000     0.350800000000     0.032654   
H        H      0.433000000000     0.200000000000     0.301400000000     0.032654   
H        H      0.454100000000     0.297500000000     0.178500000000     0.032654   
H        H      0.848400000000     0.300300000000     0.496500000000     0.032654   
H        H      0.782600000000     0.089100000000     0.280600000000     0.032654   
H        H      0.784700000000     0.089100000000     0.712200000000     0.032654   
H        H      0.676300000000     0.323200000000     0.198200000000     0.032654   
H        H      0.674100000000     0.271900000000     0.343800000000     0.032654   
H        H      0.929300000000     0.191800000000     0.293500000000     0.032654   
H        H      0.949800000000     0.282600000000     0.166300000000     0.032654   
H        H      0.674600000000     0.326600000000     0.792500000000     0.032654   
H        H      0.671000000000     0.268600000000     0.649200000000     0.032654   
H        H      0.933000000000     0.200000000000     0.698600000000     0.032654   
H        H      0.954100000000     0.297500000000     0.821500000000     0.032654   
H        H      0.651600000000     0.699700000000     0.496500000000     0.032654   
H        H      0.717400000000     0.910900000000     0.280600000000     0.032654   
H        H      0.715300000000     0.910900000000     0.712200000000     0.032654   
H        H      0.823700000000     0.676800000000     0.198200000000     0.032654   
H        H      0.825900000000     0.728100000000     0.343800000000     0.032654   
H        H      0.570700000000     0.808200000000     0.293500000000     0.032654   
H        H      0.550200000000     0.717400000000     0.166300000000     0.032654   
H        H      0.825400000000     0.673400000000     0.792500000000     0.032654   
H        H      0.829000000000     0.731400000000     0.649200000000     0.032654   
H        H      0.567000000000     0.800000000000     0.698600000000     0.032654   
H        H      0.545900000000     0.702500000000     0.821500000000     0.032654   
C        C      0.158700000000     0.610400000000     0.881300000000     0.0302472  
C        C      0.165200000000     0.610300000000     0.122500000000     0.0302472  
C        C      0.180200000000     0.680600000000     0.819500000000     0.0302472  
C        C      0.181700000000     0.675900000000     0.188900000000     0.0302472  
C        C      0.260300000000     0.694100000000     0.775700000000     0.0302472  
C        C      0.262000000000     0.691300000000     0.232700000000     0.0302472  
C        C      0.264800000000     0.730500000000     0.695500000000     0.0302472  
C        C      0.266700000000     0.730800000000     0.311800000000     0.0302472  
C        C      0.194500000000     0.768700000000     0.665600000000     0.0302472  
C        C      0.195400000000     0.768200000000     0.341100000000     0.0302472  
C        C      0.122800000000     0.769300000000     0.720600000000     0.0302472  
C        C      0.121200000000     0.763300000000     0.287600000000     0.0302472  
C        C      0.113600000000     0.721200000000     0.795300000000     0.0302472  
C        C      0.111900000000     0.712200000000     0.214400000000     0.0302472  
C        C      0.203100000000     0.818600000000     0.581300000000     0.0302472  
C        C      0.202400000000     0.818500000000     0.425600000000     0.0302472  
C        C      0.226100000000     0.910500000000     0.582400000000     0.0302472  
C        C      0.226400000000     0.910400000000     0.424500000000     0.0302472  
C        C      0.231200000000     0.951700000000     0.664100000000     0.0302472  
C        C      0.230600000000     0.951600000000     0.343000000000     0.0302472  
C        C      0.182000000000     0.770300000000     0.503500000000     0.0302472  
C        C      0.234300000000     0.955500000000     0.503400000000     0.0302472  
C        C      0.341300000000     0.389600000000     0.881300000000     0.0302472  
C        C      0.334800000000     0.389700000000     0.122500000000     0.0302472  
C        C      0.319800000000     0.319400000000     0.819500000000     0.0302472  
C        C      0.318300000000     0.324100000000     0.188900000000     0.0302472  
C        C      0.239700000000     0.305900000000     0.775700000000     0.0302472  
C        C      0.238000000000     0.308700000000     0.232700000000     0.0302472  
C        C      0.235200000000     0.269500000000     0.695500000000     0.0302472  
C        C      0.233300000000     0.269200000000     0.311800000000     0.0302472  
C        C      0.305500000000     0.231300000000     0.665600000000     0.0302472  
C        C      0.304600000000     0.231800000000     0.341100000000     0.0302472  
C        C      0.377200000000     0.230700000000     0.720600000000     0.0302472  
C        C      0.378800000000     0.236700000000     0.287600000000     0.0302472  
C        C      0.386400000000     0.278800000000     0.795300000000     0.0302472  
C        C      0.388100000000     0.287800000000     0.214400000000     0.0302472  
C        C      0.296900000000     0.181400000000     0.581300000000     0.0302472  
C        C      0.297600000000     0.181500000000     0.425600000000     0.0302472  
C        C      0.273900000000     0.089500000000     0.582400000000     0.0302472  
C        C      0.273600000000     0.089600000000     0.424500000000     0.0302472  
C        C      0.268800000000     0.048300000000     0.664100000000     0.0302472  
C        C      0.269400000000     0.048400000000     0.343000000000     0.0302472  
C        C      0.318000000000     0.229700000000     0.503500000000     0.0302472  
C        C      0.265700000000     0.044500000000     0.503400000000     0.0302472  
C        C      0.841300000000     0.389600000000     0.118700000000     0.0302472  
C        C      0.834800000000     0.389700000000     0.877500000000     0.0302472  
C        C      0.819800000000     0.319400000000     0.180500000000     0.0302472  
C        C      0.818300000000     0.324100000000     0.811100000000     0.0302472  
C        C      0.739700000000     0.305900000000     0.224300000000     0.0302472  
C        C      0.738000000000     0.308700000000     0.767300000000     0.0302472  
C        C      0.735200000000     0.269500000000     0.304500000000     0.0302472  
C        C      0.733300000000     0.269200000000     0.688200000000     0.0302472  
C        C      0.805500000000     0.231300000000     0.334400000000     0.0302472  
C        C      0.804600000000     0.231800000000     0.658900000000     0.0302472  
C        C      0.877200000000     0.230700000000     0.279400000000     0.0302472  
C        C      0.878800000000     0.236700000000     0.712400000000     0.0302472  
C        C      0.886400000000     0.278800000000     0.204700000000     0.0302472  
C        C      0.888100000000     0.287800000000     0.785600000000     0.0302472  
C        C      0.796900000000     0.181400000000     0.418700000000     0.0302472  
C        C      0.797600000000     0.181500000000     0.574400000000     0.0302472  
C        C      0.773900000000     0.089500000000     0.417600000000     0.0302472  
C        C      0.773600000000     0.089600000000     0.575500000000     0.0302472  
C        C      0.768800000000     0.048300000000     0.335900000000     0.0302472  
C        C      0.769400000000     0.048400000000     0.657000000000     0.0302472  
C        C      0.818000000000     0.229700000000     0.496500000000     0.0302472  
C        C      0.765700000000     0.044500000000     0.496600000000     0.0302472  
C        C      0.658700000000     0.610400000000     0.118700000000     0.0302472  
C        C      0.665200000000     0.610300000000     0.877500000000     0.0302472  
C        C      0.680200000000     0.680600000000     0.180500000000     0.0302472  
C        C      0.681700000000     0.675900000000     0.811100000000     0.0302472  
C        C      0.760300000000     0.694100000000     0.224300000000     0.0302472  
C        C      0.762000000000     0.691300000000     0.767300000000     0.0302472  
C        C      0.764800000000     0.730500000000     0.304500000000     0.0302472  
C        C      0.766700000000     0.730800000000     0.688200000000     0.0302472  
C        C      0.694500000000     0.768700000000     0.334400000000     0.0302472  
C        C      0.695400000000     0.768200000000     0.658900000000     0.0302472  
C        C      0.622800000000     0.769300000000     0.279400000000     0.0302472  
C        C      0.621200000000     0.763300000000     0.712400000000     0.0302472  
C        C      0.613600000000     0.721200000000     0.204700000000     0.0302472  
C        C      0.611900000000     0.712200000000     0.785600000000     0.0302472  
C        C      0.703100000000     0.818600000000     0.418700000000     0.0302472  
C        C      0.702400000000     0.818500000000     0.574400000000     0.0302472  
C        C      0.726100000000     0.910500000000     0.417600000000     0.0302472  
C        C      0.726400000000     0.910400000000     0.575500000000     0.0302472  
C        C      0.731200000000     0.951700000000     0.335900000000     0.0302472  
C        C      0.730600000000     0.951600000000     0.657000000000     0.0302472  
C        C      0.682000000000     0.770300000000     0.496500000000     0.0302472  
C        C      0.734300000000     0.955500000000     0.496600000000     0.0302472  
O        O      0.887000000000     0.554800000000     0.998600000000    -0.860922   
O        O      0.074400000000     0.578700000000     0.900400000000    -0.860922   
O        O      0.235800000000     0.582700000000     0.105200000000    -0.860922   
O        O      0.231600000000     0.573700000000     0.899500000000    -0.860922   
O        O      0.077700000000     0.578100000000     0.098700000000    -0.860922   
O        O      0.613000000000     0.445200000000     0.998600000000    -0.860922   
O        O      0.425600000000     0.421300000000     0.900400000000    -0.860922   
O        O      0.264200000000     0.417300000000     0.105200000000    -0.860922   
O        O      0.268400000000     0.426300000000     0.899500000000    -0.860922   
O        O      0.422300000000     0.421900000000     0.098700000000    -0.860922   
O        O      0.113000000000     0.445200000000     0.001400000000    -0.860922   
O        O      0.925600000000     0.421300000000     0.099600000000    -0.860922   
O        O      0.764200000000     0.417300000000     0.894800000000    -0.860922   
O        O      0.768400000000     0.426300000000     0.100500000000    -0.860922   
O        O      0.922300000000     0.421900000000     0.901300000000    -0.860922   
O        O      0.387000000000     0.554800000000     0.001400000000    -0.860922   
O        O      0.574400000000     0.578700000000     0.099600000000    -0.860922   
O        O      0.735800000000     0.582700000000     0.894800000000    -0.860922   
O        O      0.731600000000     0.573700000000     0.100500000000    -0.860922   
O        O      0.577700000000     0.578100000000     0.901300000000    -0.860922   


