data_XAXQEU_original

_audit_creation_method RASPA-1.0
_audit_creation_date 2022-1-30
_audit_author_name 'Felipe Lopes de Oliveira <felipe.lopes.oliveira@ibm.com>'

_cell_length_a    7.1622
_cell_length_b    9.094
_cell_length_c    9.749
_cell_angle_alpha 105.663
_cell_angle_beta  103.181
_cell_angle_gamma 98.248
_cell_volume      580.886

_symmetry_cell_setting          triclinic
_symmetry_space_group_name_Hall 'P 1'
_symmetry_space_group_name_H-M  'P 1'
_symmetry_Int_Tables_number     1

_symmetry_equiv_pos_as_xyz 'x,y,z'

loop_
_atom_site_label
_atom_site_type_symbol
_atom_site_fract_x
_atom_site_fract_y
_atom_site_fract_z
_atom_site_charge
In       In     0.000000000000     0.500000000000     0.000000000000     2.69528    
In       In     0.500000000000     0.500000000000     0.000000000000     2.69528    
H        H      0.508000000000     0.013000000000     0.709000000000     0.0436946  
H        H      0.767100000000     0.114100000000     0.548700000000     0.0436946  
H        H      0.812900000000     0.007900000000     0.649600000000     0.0436946  
H        H      0.079200000000     0.282500000000     0.350300000000     0.0436946  
H        H      0.056500000000     0.303200000000     0.510200000000     0.0436946  
H        H      0.206500000000     0.547700000000     0.411800000000     0.0436946  
H        H      0.330700000000     0.483100000000     0.527700000000     0.0436946  
H        H      0.291600000000     0.145100000000     0.603700000000     0.0436946  
H        H      0.435600000000     0.200100000000     0.518800000000     0.0436946  
H        H      0.759000000000     0.277000000000     0.346000000000     0.0436946  
H        H      0.492000000000     0.987000000000     0.291000000000     0.0436946  
H        H      0.232900000000     0.885900000000     0.451300000000     0.0436946  
H        H      0.187100000000     0.992100000000     0.350400000000     0.0436946  
H        H      0.920800000000     0.717500000000     0.649700000000     0.0436946  
H        H      0.943500000000     0.696800000000     0.489800000000     0.0436946  
H        H      0.793500000000     0.452300000000     0.588200000000     0.0436946  
H        H      0.669300000000     0.516900000000     0.472300000000     0.0436946  
H        H      0.708400000000     0.854900000000     0.396300000000     0.0436946  
H        H      0.564400000000     0.799900000000     0.481200000000     0.0436946  
H        H      0.241000000000     0.723000000000     0.654000000000     0.0436946  
C        C      0.708800000000     0.031300000000     0.581300000000     0.0733179  
C        C      0.049800000000     0.352600000000     0.433100000000     0.0733179  
C        C      0.841800000000     0.377000000000     0.382400000000     0.0733179  
C        C      0.202500000000     0.504000000000     0.491800000000     0.0733179  
C        C      0.801000000000     0.419700000000     0.240400000000     0.0733179  
C        C      0.646300000000     0.231500000000     0.792700000000     0.0733179  
C        C      0.559200000000     0.086800000000     0.660500000000     0.0733179  
C        C      0.388400000000     0.114700000000     0.552700000000     0.0733179  
C        C      0.291200000000     0.968700000000     0.418700000000     0.0733179  
C        C      0.950200000000     0.647400000000     0.566900000000     0.0733179  
C        C      0.158200000000     0.623000000000     0.617600000000     0.0733179  
C        C      0.797500000000     0.496000000000     0.508200000000     0.0733179  
C        C      0.199000000000     0.580300000000     0.759600000000     0.0733179  
C        C      0.353700000000     0.768500000000     0.207300000000     0.0733179  
C        C      0.440800000000     0.913200000000     0.339500000000     0.0733179  
C        C      0.611600000000     0.885300000000     0.447300000000     0.0733179  
O        O      0.766400000000     0.614600000000     0.985500000000    -0.743754   
O        O      0.532700000000     0.276200000000     0.869900000000    -0.743754   
O        O      0.643600000000     0.464400000000     0.203600000000    -0.743754   
O        O      0.821300000000     0.298800000000     0.818800000000    -0.743754   
O        O      0.922100000000     0.404100000000     0.164400000000    -0.743754   
O        O      0.233600000000     0.385400000000     0.014500000000    -0.743754   
O        O      0.467300000000     0.723800000000     0.130100000000    -0.743754   
O        O      0.356400000000     0.535600000000     0.796400000000    -0.743754   
O        O      0.178700000000     0.701200000000     0.181200000000    -0.743754   
O        O      0.077900000000     0.595900000000     0.835600000000    -0.743754   


