data_XECBUD_original

_audit_creation_method RASPA-1.0
_audit_creation_date 2022-1-30
_audit_author_name 'Felipe Lopes de Oliveira <felipe.lopes.oliveira@ibm.com>'

_cell_length_a    11.558
_cell_length_b    11.617
_cell_length_c    11.841
_cell_angle_alpha 64.11
_cell_angle_beta  81.057
_cell_angle_gamma 72.69
_cell_volume      1364.93

_symmetry_cell_setting          triclinic
_symmetry_space_group_name_Hall 'P 1'
_symmetry_space_group_name_H-M  'P 1'
_symmetry_Int_Tables_number     1

_symmetry_equiv_pos_as_xyz 'x,y,z'

loop_
_atom_site_label
_atom_site_type_symbol
_atom_site_fract_x
_atom_site_fract_y
_atom_site_fract_z
_atom_site_charge
Zn       Zn     0.000000000000     0.000000000000     0.500000000000     0.412762   
Zn       Zn     0.000000000000     0.000000000000     0.000000000000     0.412762   
Zn       Zn     0.000000000000     0.500000000000     0.500000000000     0.412762   
H        H      0.781000000000     0.000600000000     0.688500000000     0.0458256  
H        H      0.639800000000     0.398800000000     0.368000000000     0.0458256  
H        H      0.832000000000     0.276700000000     0.364900000000     0.0458256  
H        H      0.584300000000     0.114100000000     0.699300000000     0.0458256  
H        H      0.444500000000     0.452800000000     0.343100000000     0.0458256  
H        H      0.416400000000     0.264600000000     0.716500000000     0.0458256  
H        H      0.958500000000     0.333900000000     0.817300000000     0.0458256  
H        H      0.213500000000     0.362400000000     0.703800000000     0.0458256  
H        H      0.239700000000     0.538100000000     0.341500000000     0.0458256  
H        H      0.219000000000     0.999400000000     0.311500000000     0.0458256  
H        H      0.360200000000     0.601200000000     0.632000000000     0.0458256  
H        H      0.168000000000     0.723300000000     0.635100000000     0.0458256  
H        H      0.415700000000     0.885900000000     0.300700000000     0.0458256  
H        H      0.555500000000     0.547200000000     0.656900000000     0.0458256  
H        H      0.583600000000     0.735400000000     0.283500000000     0.0458256  
H        H      0.041500000000     0.666100000000     0.182700000000     0.0458256  
H        H      0.786500000000     0.637600000000     0.296200000000     0.0458256  
H        H      0.760300000000     0.461900000000     0.658500000000     0.0458256  
C        C      0.960800000000     0.032600000000     0.233300000000     0.0431589  
C        C      0.020000000000     0.112100000000     0.730900000000     0.0431589  
C        C      0.751200000000     0.081300000000     0.622100000000     0.0431589  
C        C      0.455900000000     0.340700000000     0.530800000000     0.0431589  
C        C      0.585500000000     0.271800000000     0.532600000000     0.0431589  
C        C      0.665500000000     0.316700000000     0.434400000000     0.0431589  
C        C      0.781200000000     0.243000000000     0.433200000000     0.0431589  
C        C      0.632900000000     0.149500000000     0.629500000000     0.0431589  
C        C      0.399100000000     0.429100000000     0.418000000000     0.0431589  
C        C      0.382600000000     0.318900000000     0.638200000000     0.0431589  
C        C      0.978400000000     0.281000000000     0.773100000000     0.0431589  
C        C      0.022900000000     0.221900000000     0.621400000000     0.0431589  
C        C      0.051500000000     0.246100000000     0.486100000000     0.0431589  
C        C      0.260300000000     0.377200000000     0.629900000000     0.0431589  
C        C      0.275900000000     0.480800000000     0.418000000000     0.0431589  
C        C      0.039200000000     0.967400000000     0.766700000000     0.0431589  
C        C      0.980000000000     0.887900000000     0.269100000000     0.0431589  
C        C      0.248800000000     0.918700000000     0.377900000000     0.0431589  
C        C      0.544100000000     0.659300000000     0.469200000000     0.0431589  
C        C      0.414500000000     0.728200000000     0.467400000000     0.0431589  
C        C      0.334500000000     0.683300000000     0.565600000000     0.0431589  
C        C      0.218800000000     0.757000000000     0.566800000000     0.0431589  
C        C      0.367100000000     0.850500000000     0.370500000000     0.0431589  
C        C      0.600900000000     0.570900000000     0.582000000000     0.0431589  
C        C      0.617400000000     0.681100000000     0.361800000000     0.0431589  
C        C      0.021600000000     0.719000000000     0.226900000000     0.0431589  
C        C      0.977100000000     0.778100000000     0.378600000000     0.0431589  
C        C      0.948500000000     0.753900000000     0.513900000000     0.0431589  
C        C      0.739700000000     0.622800000000     0.370100000000     0.0431589  
C        C      0.724100000000     0.519200000000     0.582000000000     0.0431589  
N        N      0.991300000000     0.152900000000     0.828300000000    -0.152143   
N        N      0.825500000000     0.125400000000     0.524100000000    -0.152143   
N        N      0.995700000000     0.329600000000     0.650000000000    -0.152143   
N        N      0.205500000000     0.453700000000     0.521100000000    -0.152143   
N        N      0.008700000000     0.847100000000     0.171700000000    -0.152143   
N        N      0.174500000000     0.874600000000     0.475900000000    -0.152143   
N        N      0.004300000000     0.670400000000     0.350000000000    -0.152143   
N        N      0.794500000000     0.546300000000     0.478900000000    -0.152143   
O        O      0.960700000000     0.077600000000     0.310300000000    -0.267596   
O        O      0.949200000000     0.104500000000     0.116900000000    -0.267596   
O        O      0.082500000000     0.152500000000     0.453600000000    -0.267596   
O        O      0.046800000000     0.363900000000     0.412700000000    -0.267596   
O        O      0.039300000000     0.922400000000     0.689700000000    -0.267596   
O        O      0.050800000000     0.895500000000     0.883100000000    -0.267596   
O        O      0.917500000000     0.847500000000     0.546400000000    -0.267596   
O        O      0.953200000000     0.636100000000     0.587300000000    -0.267596   


