data_XEDPIH_original

_audit_creation_method RASPA-1.0
_audit_creation_date 2022-1-30
_audit_author_name 'Felipe Lopes de Oliveira <felipe.lopes.oliveira@ibm.com>'

_cell_length_a    10.209
_cell_length_b    13.636
_cell_length_c    14.124
_cell_angle_alpha 91.568
_cell_angle_beta  90
_cell_angle_gamma 90
_cell_volume      1965.46

_symmetry_cell_setting          triclinic
_symmetry_space_group_name_Hall 'P 1'
_symmetry_space_group_name_H-M  'P 1'
_symmetry_Int_Tables_number     1

_symmetry_equiv_pos_as_xyz 'x,y,z'

loop_
_atom_site_label
_atom_site_type_symbol
_atom_site_fract_x
_atom_site_fract_y
_atom_site_fract_z
_atom_site_charge
Zn       Zn     0.914870000000     0.337460000000     0.326730000000     0.384849   
Zn       Zn     0.496030000000     0.307910000000     0.654620000000     0.384849   
Zn       Zn     0.414870000000     0.162540000000     0.173270000000     0.384849   
Zn       Zn     0.996030000000     0.192090000000     0.845380000000     0.384849   
Zn       Zn     0.085130000000     0.662540000000     0.673270000000     0.384849   
Zn       Zn     0.503970000000     0.692090000000     0.345380000000     0.384849   
Zn       Zn     0.585130000000     0.837460000000     0.826730000000     0.384849   
Zn       Zn     0.003970000000     0.807910000000     0.154620000000     0.384849   
H        H      0.088900000000     0.263200000000     0.476400000000     0.033917   
H        H      0.704400000000     0.247200000000     0.811000000000     0.033917   
H        H      0.706600000000     0.314900000000     0.478200000000     0.033917   
H        H      0.322300000000     0.530800000000     0.291100000000     0.033917   
H        H      0.708500000000     0.188700000000     0.237200000000     0.033917   
H        H      0.701800000000     0.525900000000     0.350300000000     0.033917   
H        H      0.588900000000     0.236800000000     0.023600000000     0.033917   
H        H      0.204400000000     0.252800000000     0.689000000000     0.033917   
H        H      0.206600000000     0.185100000000     0.021800000000     0.033917   
H        H      0.822300000000     0.969200000000     0.208900000000     0.033917   
H        H      0.208500000000     0.311300000000     0.262800000000     0.033917   
H        H      0.201800000000     0.974100000000     0.149700000000     0.033917   
H        H      0.911100000000     0.736800000000     0.523600000000     0.033917   
H        H      0.295600000000     0.752800000000     0.189000000000     0.033917   
H        H      0.293400000000     0.685100000000     0.521800000000     0.033917   
H        H      0.677700000000     0.469200000000     0.708900000000     0.033917   
H        H      0.291500000000     0.811300000000     0.762800000000     0.033917   
H        H      0.298200000000     0.474100000000     0.649700000000     0.033917   
H        H      0.411100000000     0.763200000000     0.976400000000     0.033917   
H        H      0.795600000000     0.747200000000     0.311000000000     0.033917   
H        H      0.793400000000     0.814900000000     0.978200000000     0.033917   
H        H      0.177700000000     0.030800000000     0.791100000000     0.033917   
H        H      0.791500000000     0.688700000000     0.737200000000     0.033917   
H        H      0.798200000000     0.025900000000     0.850300000000     0.033917   
C        C      0.009500000000     0.266100000000     0.511400000000     0.0789956  
C        C      0.901200000000     0.250100000000     0.647600000000     0.0789956  
C        C      0.748000000000     0.252100000000     0.751900000000     0.0789956  
C        C      0.782200000000     0.275300000000     0.604300000000     0.0789956  
C        C      0.784600000000     0.297100000000     0.510200000000     0.0789956  
C        C      0.401800000000     0.494600000000     0.290900000000     0.0789956  
C        C      0.511100000000     0.355400000000     0.262500000000     0.0789956  
C        C      0.664400000000     0.248800000000     0.250400000000     0.0789956  
C        C      0.629100000000     0.398200000000     0.294500000000     0.0789956  
C        C      0.625300000000     0.494200000000     0.326400000000     0.0789956  
C        C      0.509500000000     0.233900000000     0.988600000000     0.0789956  
C        C      0.401200000000     0.249900000000     0.852400000000     0.0789956  
C        C      0.248000000000     0.247900000000     0.748100000000     0.0789956  
C        C      0.282200000000     0.224700000000     0.895700000000     0.0789956  
C        C      0.284600000000     0.202900000000     0.989800000000     0.0789956  
C        C      0.901800000000     0.005400000000     0.209100000000     0.0789956  
C        C      0.011100000000     0.144600000000     0.237500000000     0.0789956  
C        C      0.164400000000     0.251200000000     0.249600000000     0.0789956  
C        C      0.129100000000     0.101800000000     0.205500000000     0.0789956  
C        C      0.125300000000     0.005800000000     0.173600000000     0.0789956  
C        C      0.990500000000     0.733900000000     0.488600000000     0.0789956  
C        C      0.098800000000     0.749900000000     0.352400000000     0.0789956  
C        C      0.252000000000     0.747900000000     0.248100000000     0.0789956  
C        C      0.217800000000     0.724700000000     0.395700000000     0.0789956  
C        C      0.215400000000     0.702900000000     0.489800000000     0.0789956  
C        C      0.598200000000     0.505400000000     0.709100000000     0.0789956  
C        C      0.488900000000     0.644600000000     0.737500000000     0.0789956  
C        C      0.335600000000     0.751200000000     0.749600000000     0.0789956  
C        C      0.370900000000     0.601800000000     0.705500000000     0.0789956  
C        C      0.374700000000     0.505800000000     0.673600000000     0.0789956  
C        C      0.490500000000     0.766100000000     0.011400000000     0.0789956  
C        C      0.598800000000     0.750100000000     0.147600000000     0.0789956  
C        C      0.752000000000     0.752100000000     0.251900000000     0.0789956  
C        C      0.717800000000     0.775300000000     0.104300000000     0.0789956  
C        C      0.715400000000     0.797100000000     0.010200000000     0.0789956  
C        C      0.098200000000     0.994600000000     0.790900000000     0.0789956  
C        C      0.988900000000     0.855400000000     0.762500000000     0.0789956  
C        C      0.835600000000     0.748800000000     0.750400000000     0.0789956  
C        C      0.870900000000     0.898200000000     0.794500000000     0.0789956  
C        C      0.874700000000     0.994200000000     0.826400000000     0.0789956  
Br       Br     0.007000000000     0.495290000000     0.323410000000    -0.269404   
Br       Br     0.408930000000     0.271360000000     0.504100000000    -0.269404   
Br       Br     0.507000000000     0.004710000000     0.176590000000    -0.269404   
Br       Br     0.908930000000     0.228640000000     0.995900000000    -0.269404   
Br       Br     0.993000000000     0.504710000000     0.676590000000    -0.269404   
Br       Br     0.591070000000     0.728640000000     0.495900000000    -0.269404   
Br       Br     0.493000000000     0.995290000000     0.823410000000    -0.269404   
Br       Br     0.091070000000     0.771360000000     0.004100000000    -0.269404   
N        N      0.899700000000     0.292800000000     0.464000000000    -0.153044   
N        N      0.015500000000     0.243600000000     0.602500000000    -0.153044   
N        N      0.879000000000     0.236100000000     0.742100000000    -0.153044   
N        N      0.685100000000     0.275100000000     0.672800000000    -0.153044   
N        N      0.510600000000     0.542100000000     0.322900000000    -0.153044   
N        N      0.396300000000     0.402000000000     0.259200000000    -0.153044   
N        N      0.534900000000     0.260300000000     0.234300000000    -0.153044   
N        N      0.726500000000     0.328100000000     0.286500000000    -0.153044   
N        N      0.399700000000     0.207200000000     0.036000000000    -0.153044   
N        N      0.515500000000     0.256400000000     0.897500000000    -0.153044   
N        N      0.379000000000     0.263900000000     0.757900000000    -0.153044   
N        N      0.185100000000     0.224900000000     0.827200000000    -0.153044   
N        N      0.010600000000     0.957900000000     0.177100000000    -0.153044   
N        N      0.896300000000     0.098000000000     0.240800000000    -0.153044   
N        N      0.034900000000     0.239700000000     0.265700000000    -0.153044   
N        N      0.226500000000     0.171900000000     0.213500000000    -0.153044   
N        N      0.100300000000     0.707200000000     0.536000000000    -0.153044   
N        N      0.984500000000     0.756400000000     0.397500000000    -0.153044   
N        N      0.121000000000     0.763900000000     0.257900000000    -0.153044   
N        N      0.314900000000     0.724900000000     0.327200000000    -0.153044   
N        N      0.489400000000     0.457900000000     0.677100000000    -0.153044   
N        N      0.603700000000     0.598000000000     0.740800000000    -0.153044   
N        N      0.465100000000     0.739700000000     0.765700000000    -0.153044   
N        N      0.273500000000     0.671900000000     0.713500000000    -0.153044   
N        N      0.600300000000     0.792800000000     0.964000000000    -0.153044   
N        N      0.484500000000     0.743600000000     0.102500000000    -0.153044   
N        N      0.621000000000     0.736100000000     0.242100000000    -0.153044   
N        N      0.814900000000     0.775100000000     0.172800000000    -0.153044   
N        N      0.989400000000     0.042100000000     0.822900000000    -0.153044   
N        N      0.103700000000     0.902000000000     0.759200000000    -0.153044   
N        N      0.965100000000     0.760300000000     0.734300000000    -0.153044   
N        N      0.773500000000     0.828100000000     0.786500000000    -0.153044   


