data_XENKIM_original

_audit_creation_method RASPA-1.0
_audit_creation_date 2022-1-29
_audit_author_name 'Felipe Lopes de Oliveira <felipe.lopes.oliveira@ibm.com>'

_cell_length_a    13.5488
_cell_length_b    21.114
_cell_length_c    21.114
_cell_angle_alpha 84.0912
_cell_angle_beta  71.2856
_cell_angle_gamma 71.2857
_cell_volume      5418.27

_symmetry_cell_setting          triclinic
_symmetry_space_group_name_Hall 'P 1'
_symmetry_space_group_name_H-M  'P 1'
_symmetry_Int_Tables_number     1

_symmetry_equiv_pos_as_xyz 'x,y,z'

loop_
_atom_site_label
_atom_site_type_symbol
_atom_site_fract_x
_atom_site_fract_y
_atom_site_fract_z
_atom_site_charge
Ca       Ca     0.372060000000     0.195130000000     0.814670000000     1.27773    
Ca       Ca     0.881860000000     0.304870000000     0.685330000000     1.27773    
Ca       Ca     0.567190000000     0.314670000000     0.804870000000     1.27773    
Ca       Ca     0.186730000000     0.185330000000     0.695130000000     1.27773    
Ca       Ca     0.627940000000     0.804870000000     0.185330000000     1.27773    
Ca       Ca     0.118140000000     0.695130000000     0.314670000000     1.27773    
Ca       Ca     0.432810000000     0.685330000000     0.195130000000     1.27773    
Ca       Ca     0.813270000000     0.814670000000     0.304870000000     1.27773    
H        H      0.784100000000     0.183900000000     0.754300000000     0.0482305  
H        H      0.020700000000     0.005800000000     0.741200000000     0.0482305  
H        H      0.709900000000     0.009700000000     0.769300000000     0.0482305  
H        H      0.876500000000     0.805500000000     0.912500000000     0.0482305  
H        H      0.042000000000     0.811000000000     0.590600000000     0.0482305  
H        H      0.222300000000     0.316100000000     0.745700000000     0.0482305  
H        H      0.267700000000     0.494200000000     0.758800000000     0.0482305  
H        H      0.988900000000     0.490300000000     0.730700000000     0.0482305  
H        H      0.094500000000     0.694500000000     0.587500000000     0.0482305  
H        H      0.943600000000     0.689000000000     0.909400000000     0.0482305  
H        H      0.968000000000     0.254300000000     0.816100000000     0.0482305  
H        H      0.026500000000     0.241200000000     0.994200000000     0.0482305  
H        H      0.719600000000     0.269300000000     0.990300000000     0.0482305  
H        H      0.682000000000     0.412500000000     0.194500000000     0.0482305  
H        H      0.853000000000     0.090600000000     0.189000000000     0.0482305  
H        H      0.538400000000     0.245700000000     0.683900000000     0.0482305  
H        H      0.761900000000     0.258800000000     0.505800000000     0.0482305  
H        H      0.479200000000     0.230700000000     0.509700000000     0.0482305  
H        H      0.789000000000     0.087500000000     0.305500000000     0.0482305  
H        H      0.632600000000     0.409400000000     0.311000000000     0.0482305  
H        H      0.215900000000     0.816100000000     0.245700000000     0.0482305  
H        H      0.979300000000     0.994200000000     0.258800000000     0.0482305  
H        H      0.290100000000     0.990300000000     0.230700000000     0.0482305  
H        H      0.123500000000     0.194500000000     0.087500000000     0.0482305  
H        H      0.958000000000     0.189000000000     0.409400000000     0.0482305  
H        H      0.777700000000     0.683900000000     0.254300000000     0.0482305  
H        H      0.732300000000     0.505800000000     0.241200000000     0.0482305  
H        H      0.011100000000     0.509700000000     0.269300000000     0.0482305  
H        H      0.905500000000     0.305500000000     0.412500000000     0.0482305  
H        H      0.056400000000     0.311000000000     0.090600000000     0.0482305  
H        H      0.032000000000     0.745700000000     0.183900000000     0.0482305  
H        H      0.973500000000     0.758800000000     0.005800000000     0.0482305  
H        H      0.280400000000     0.730700000000     0.009700000000     0.0482305  
H        H      0.318000000000     0.587500000000     0.805500000000     0.0482305  
H        H      0.147000000000     0.909400000000     0.811000000000     0.0482305  
H        H      0.461600000000     0.754300000000     0.316100000000     0.0482305  
H        H      0.238100000000     0.741200000000     0.494200000000     0.0482305  
H        H      0.520800000000     0.769300000000     0.490300000000     0.0482305  
H        H      0.211000000000     0.912500000000     0.694500000000     0.0482305  
H        H      0.367400000000     0.590600000000     0.689000000000     0.0482305  
C        C      0.609700000000     0.140060000000     0.779540000000     0.0633669  
C        C      0.000970000000     0.135310000000     0.732350000000     0.0633669  
C        C      0.727890000000     0.102450000000     0.765370000000     0.0633669  
C        C      0.806310000000     0.136400000000     0.754580000000     0.0633669  
C        C      0.916250000000     0.100430000000     0.744470000000     0.0633669  
C        C      0.946890000000     0.031040000000     0.745580000000     0.0633669  
C        C      0.869600000000     0.998740000000     0.753060000000     0.0633669  
C        C      0.761550000000     0.033080000000     0.763420000000     0.0633669  
C        C      0.949600000000     0.894600000000     0.689800000000     0.0633669  
C        C      0.888000000000     0.892800000000     0.814000000000     0.0633669  
C        C      0.911900000000     0.783000000000     0.870800000000     0.0633669  
C        C      0.926060000000     0.818810000000     0.811670000000     0.0633669  
C        C      0.032200000000     0.786800000000     0.631400000000     0.0633669  
C        C      0.985700000000     0.821700000000     0.690100000000     0.0633669  
C        C      0.974600000000     0.786000000000     0.749800000000     0.0633669  
C        C      0.029300000000     0.359940000000     0.720460000000     0.0633669  
C        C      0.368630000000     0.364690000000     0.767650000000     0.0633669  
C        C      0.095710000000     0.397550000000     0.734630000000     0.0633669  
C        C      0.197290000000     0.363600000000     0.745420000000     0.0633669  
C        C      0.261150000000     0.399570000000     0.755530000000     0.0633669  
C        C      0.223510000000     0.468960000000     0.754420000000     0.0633669  
C        C      0.121400000000     0.501260000000     0.746940000000     0.0633669  
C        C      0.058050000000     0.466920000000     0.736580000000     0.0633669  
C        C      0.034000000000     0.605400000000     0.810200000000     0.0633669  
C        C      0.094800000000     0.607200000000     0.686000000000     0.0633669  
C        C      0.065700000000     0.717000000000     0.629200000000     0.0633669  
C        C      0.056540000000     0.681190000000     0.688330000000     0.0633669  
C        C      0.950400000000     0.713200000000     0.868600000000     0.0633669  
C        C      0.997500000000     0.678300000000     0.809900000000     0.0633669  
C        C      0.010400000000     0.714000000000     0.750200000000     0.0633669  
C        C      0.749760000000     0.279540000000     0.859940000000     0.0633669  
C        C      0.136280000000     0.232350000000     0.864690000000     0.0633669  
C        C      0.830340000000     0.265370000000     0.897550000000     0.0633669  
C        C      0.942710000000     0.254580000000     0.863600000000     0.0633669  
C        C      0.016680000000     0.244470000000     0.899570000000     0.0633669  
C        C      0.977930000000     0.245580000000     0.968960000000     0.0633669  
C        C      0.868340000000     0.253060000000     0.001260000000     0.0633669  
C        C      0.794630000000     0.263420000000     0.966920000000     0.0633669  
C        C      0.844200000000     0.189800000000     0.105400000000     0.0633669  
C        C      0.780800000000     0.314000000000     0.107200000000     0.0633669  
C        C      0.694900000000     0.370800000000     0.217000000000     0.0633669  
C        C      0.744870000000     0.311670000000     0.181190000000     0.0633669  
C        C      0.819000000000     0.131400000000     0.213200000000     0.0633669  
C        C      0.807400000000     0.190100000000     0.178300000000     0.0633669  
C        C      0.760600000000     0.249800000000     0.214000000000     0.0633669  
C        C      0.389240000000     0.220460000000     0.640060000000     0.0633669  
C        C      0.733320000000     0.267650000000     0.635310000000     0.0633669  
C        C      0.493260000000     0.234630000000     0.602450000000     0.0633669  
C        C      0.560890000000     0.245420000000     0.636400000000     0.0633669  
C        C      0.660720000000     0.255530000000     0.600430000000     0.0633669  
C        C      0.692470000000     0.254420000000     0.531040000000     0.0633669  
C        C      0.622660000000     0.246940000000     0.498740000000     0.0633669  
C        C      0.524970000000     0.236580000000     0.533080000000     0.0633669  
C        C      0.639400000000     0.310200000000     0.394600000000     0.0633669  
C        C      0.702000000000     0.186000000000     0.392800000000     0.0633669  
C        C      0.782700000000     0.129200000000     0.283000000000     0.0633669  
C        C      0.737730000000     0.188330000000     0.318810000000     0.0633669  
C        C      0.663600000000     0.368600000000     0.286800000000     0.0633669  
C        C      0.675800000000     0.309900000000     0.321700000000     0.0633669  
C        C      0.724400000000     0.250200000000     0.286000000000     0.0633669  
C        C      0.390300000000     0.859940000000     0.220460000000     0.0633669  
C        C      0.999030000000     0.864690000000     0.267650000000     0.0633669  
C        C      0.272110000000     0.897550000000     0.234630000000     0.0633669  
C        C      0.193690000000     0.863600000000     0.245420000000     0.0633669  
C        C      0.083750000000     0.899570000000     0.255530000000     0.0633669  
C        C      0.053110000000     0.968960000000     0.254420000000     0.0633669  
C        C      0.130400000000     0.001260000000     0.246940000000     0.0633669  
C        C      0.238450000000     0.966920000000     0.236580000000     0.0633669  
C        C      0.050400000000     0.105400000000     0.310200000000     0.0633669  
C        C      0.112000000000     0.107200000000     0.186000000000     0.0633669  
C        C      0.088100000000     0.217000000000     0.129200000000     0.0633669  
C        C      0.073940000000     0.181190000000     0.188330000000     0.0633669  
C        C      0.967800000000     0.213200000000     0.368600000000     0.0633669  
C        C      0.014300000000     0.178300000000     0.309900000000     0.0633669  
C        C      0.025400000000     0.214000000000     0.250200000000     0.0633669  
C        C      0.970700000000     0.640060000000     0.279540000000     0.0633669  
C        C      0.631370000000     0.635310000000     0.232350000000     0.0633669  
C        C      0.904290000000     0.602450000000     0.265370000000     0.0633669  
C        C      0.802710000000     0.636400000000     0.254580000000     0.0633669  
C        C      0.738850000000     0.600430000000     0.244470000000     0.0633669  
C        C      0.776490000000     0.531040000000     0.245580000000     0.0633669  
C        C      0.878600000000     0.498740000000     0.253060000000     0.0633669  
C        C      0.941950000000     0.533080000000     0.263420000000     0.0633669  
C        C      0.966000000000     0.394600000000     0.189800000000     0.0633669  
C        C      0.905200000000     0.392800000000     0.314000000000     0.0633669  
C        C      0.934300000000     0.283000000000     0.370800000000     0.0633669  
C        C      0.943460000000     0.318810000000     0.311670000000     0.0633669  
C        C      0.049600000000     0.286800000000     0.131400000000     0.0633669  
C        C      0.002500000000     0.321700000000     0.190100000000     0.0633669  
C        C      0.989600000000     0.286000000000     0.249800000000     0.0633669  
C        C      0.250240000000     0.720460000000     0.140060000000     0.0633669  
C        C      0.863720000000     0.767650000000     0.135310000000     0.0633669  
C        C      0.169660000000     0.734630000000     0.102450000000     0.0633669  
C        C      0.057290000000     0.745420000000     0.136400000000     0.0633669  
C        C      0.983320000000     0.755530000000     0.100430000000     0.0633669  
C        C      0.022070000000     0.754420000000     0.031040000000     0.0633669  
C        C      0.131660000000     0.746940000000     0.998740000000     0.0633669  
C        C      0.205370000000     0.736580000000     0.033080000000     0.0633669  
C        C      0.155800000000     0.810200000000     0.894600000000     0.0633669  
C        C      0.219200000000     0.686000000000     0.892800000000     0.0633669  
C        C      0.305100000000     0.629200000000     0.783000000000     0.0633669  
C        C      0.255130000000     0.688330000000     0.818810000000     0.0633669  
C        C      0.181000000000     0.868600000000     0.786800000000     0.0633669  
C        C      0.192600000000     0.809900000000     0.821700000000     0.0633669  
C        C      0.239400000000     0.750200000000     0.786000000000     0.0633669  
C        C      0.610760000000     0.779540000000     0.359940000000     0.0633669  
C        C      0.266680000000     0.732350000000     0.364690000000     0.0633669  
C        C      0.506740000000     0.765370000000     0.397550000000     0.0633669  
C        C      0.439110000000     0.754580000000     0.363600000000     0.0633669  
C        C      0.339280000000     0.744470000000     0.399570000000     0.0633669  
C        C      0.307530000000     0.745580000000     0.468960000000     0.0633669  
C        C      0.377340000000     0.753060000000     0.501260000000     0.0633669  
C        C      0.475030000000     0.763420000000     0.466920000000     0.0633669  
C        C      0.360600000000     0.689800000000     0.605400000000     0.0633669  
C        C      0.298000000000     0.814000000000     0.607200000000     0.0633669  
C        C      0.217300000000     0.870800000000     0.717000000000     0.0633669  
C        C      0.262270000000     0.811670000000     0.681190000000     0.0633669  
C        C      0.336400000000     0.631400000000     0.713200000000     0.0633669  
C        C      0.324200000000     0.690100000000     0.678300000000     0.0633669  
C        C      0.275600000000     0.749800000000     0.714000000000     0.0633669  
N        N      0.906640000000     0.925450000000     0.751270000000    -0.185632   
N        N      0.083360000000     0.574550000000     0.748730000000    -0.185632   
N        N      0.832090000000     0.251270000000     0.074550000000    -0.185632   
N        N      0.657910000000     0.248730000000     0.425450000000    -0.185632   
N        N      0.093360000000     0.074550000000     0.248730000000    -0.185632   
N        N      0.916640000000     0.425450000000     0.251270000000    -0.185632   
N        N      0.167910000000     0.748730000000     0.925450000000    -0.185632   
N        N      0.342090000000     0.751270000000     0.574550000000    -0.185632   
O        O      0.578540000000     0.200970000000     0.794150000000    -0.380626   
O        O      0.545700000000     0.109990000000     0.778210000000    -0.380626   
O        O      0.978410000000     0.194910000000     0.711270000000    -0.380626   
O        O      0.089480000000     0.104200000000     0.741040000000    -0.380626   
O        O      0.956690000000     0.927350000000     0.639270000000    -0.380626   
O        O      0.846040000000     0.924020000000     0.864900000000    -0.380626   
O        O      0.073660000000     0.299030000000     0.705850000000    -0.380626   
O        O      0.933900000000     0.390010000000     0.721790000000    -0.380626   
O        O      0.384590000000     0.305090000000     0.788730000000    -0.380626   
O        O      0.434720000000     0.395800000000     0.758960000000    -0.380626   
O        O      0.023310000000     0.572650000000     0.860730000000    -0.380626   
O        O      0.134960000000     0.575980000000     0.635100000000    -0.380626   
O        O      0.779510000000     0.294150000000     0.799030000000    -0.380626   
O        O      0.655690000000     0.278210000000     0.890010000000    -0.380626   
O        O      0.173320000000     0.211270000000     0.805090000000    -0.380626   
O        O      0.193680000000     0.241040000000     0.895800000000    -0.380626   
O        O      0.884040000000     0.139270000000     0.072650000000    -0.380626   
O        O      0.770060000000     0.364900000000     0.075980000000    -0.380626   
O        O      0.372690000000     0.205850000000     0.700970000000    -0.380626   
O        O      0.323910000000     0.221790000000     0.609990000000    -0.380626   
O        O      0.689680000000     0.288730000000     0.694910000000    -0.380626   
O        O      0.830520000000     0.258960000000     0.604200000000    -0.380626   
O        O      0.595960000000     0.360730000000     0.427350000000    -0.380626   
O        O      0.710940000000     0.135100000000     0.424020000000    -0.380626   
O        O      0.421460000000     0.799030000000     0.205850000000    -0.380626   
O        O      0.454300000000     0.890010000000     0.221790000000    -0.380626   
O        O      0.021590000000     0.805090000000     0.288730000000    -0.380626   
O        O      0.910520000000     0.895800000000     0.258960000000    -0.380626   
O        O      0.043310000000     0.072650000000     0.360730000000    -0.380626   
O        O      0.153960000000     0.075980000000     0.135100000000    -0.380626   
O        O      0.926340000000     0.700970000000     0.294150000000    -0.380626   
O        O      0.066100000000     0.609990000000     0.278210000000    -0.380626   
O        O      0.615410000000     0.694910000000     0.211270000000    -0.380626   
O        O      0.565280000000     0.604200000000     0.241040000000    -0.380626   
O        O      0.976690000000     0.427350000000     0.139270000000    -0.380626   
O        O      0.865040000000     0.424020000000     0.364900000000    -0.380626   
O        O      0.220490000000     0.705850000000     0.200970000000    -0.380626   
O        O      0.344310000000     0.721790000000     0.109990000000    -0.380626   
O        O      0.826680000000     0.788730000000     0.194910000000    -0.380626   
O        O      0.806320000000     0.758960000000     0.104200000000    -0.380626   
O        O      0.115960000000     0.860730000000     0.927350000000    -0.380626   
O        O      0.229940000000     0.635100000000     0.924020000000    -0.380626   
O        O      0.627310000000     0.794150000000     0.299030000000    -0.380626   
O        O      0.676090000000     0.778210000000     0.390010000000    -0.380626   
O        O      0.310320000000     0.711270000000     0.305090000000    -0.380626   
O        O      0.169480000000     0.741040000000     0.395800000000    -0.380626   
O        O      0.404040000000     0.639270000000     0.572650000000    -0.380626   
O        O      0.289060000000     0.864900000000     0.575980000000    -0.380626   


