data_XEXLUJ_original

_audit_creation_method RASPA-1.0
_audit_creation_date 2022-1-31
_audit_author_name 'Felipe Lopes de Oliveira <felipe.lopes.oliveira@ibm.com>'

_cell_length_a    5.6137
_cell_length_b    17.1499
_cell_length_c    26.3769
_cell_angle_alpha 90
_cell_angle_beta  90
_cell_angle_gamma 96.82
_cell_volume      2521.45

_symmetry_cell_setting          triclinic
_symmetry_space_group_name_Hall 'P 1'
_symmetry_space_group_name_H-M  'P 1'
_symmetry_Int_Tables_number     1

_symmetry_equiv_pos_as_xyz 'x,y,z'

loop_
_atom_site_label
_atom_site_type_symbol
_atom_site_fract_x
_atom_site_fract_y
_atom_site_fract_z
_atom_site_charge
Zn       Zn     0.109490000000     0.572420000000     0.528300000000     0.468412   
Zn       Zn     0.890510000000     0.927580000000     0.028300000000     0.468412   
Zn       Zn     0.890510000000     0.427580000000     0.471700000000     0.468412   
Zn       Zn     0.109490000000     0.072420000000     0.971700000000     0.468412   
H        H      0.471700000000     0.896900000000     0.100100000000     0.068518   
H        H      0.396300000000     0.832200000000     0.177200000000     0.068518   
H        H      0.986700000000     0.722300000000     0.154100000000     0.068518   
H        H      0.047500000000     0.790800000000     0.078600000000     0.068518   
H        H      0.123000000000     0.574300000000     0.262500000000     0.068518   
H        H      0.068700000000     0.514000000000     0.342300000000     0.068518   
H        H      0.050900000000     0.720500000000     0.420600000000     0.068518   
H        H      0.087900000000     0.783100000000     0.341900000000     0.068518   
H        H      0.528300000000     0.603100000000     0.600100000000     0.068518   
H        H      0.603700000000     0.667800000000     0.677200000000     0.068518   
H        H      0.013300000000     0.777700000000     0.654100000000     0.068518   
H        H      0.952500000000     0.709200000000     0.578600000000     0.068518   
H        H      0.877000000000     0.925700000000     0.762500000000     0.068518   
H        H      0.931300000000     0.986000000000     0.842300000000     0.068518   
H        H      0.949100000000     0.779500000000     0.920600000000     0.068518   
H        H      0.912100000000     0.716900000000     0.841900000000     0.068518   
H        H      0.528300000000     0.103100000000     0.899900000000     0.068518   
H        H      0.603700000000     0.167800000000     0.822800000000     0.068518   
H        H      0.013300000000     0.277700000000     0.845900000000     0.068518   
H        H      0.952500000000     0.209200000000     0.921400000000     0.068518   
H        H      0.877000000000     0.425700000000     0.737500000000     0.068518   
H        H      0.931300000000     0.486000000000     0.657700000000     0.068518   
H        H      0.949100000000     0.279500000000     0.579400000000     0.068518   
H        H      0.912100000000     0.216900000000     0.658100000000     0.068518   
H        H      0.471700000000     0.396900000000     0.399900000000     0.068518   
H        H      0.396300000000     0.332200000000     0.322800000000     0.068518   
H        H      0.986700000000     0.222300000000     0.345900000000     0.068518   
H        H      0.047500000000     0.290800000000     0.421400000000     0.068518   
H        H      0.123000000000     0.074300000000     0.237500000000     0.068518   
H        H      0.068700000000     0.014000000000     0.157700000000     0.068518   
H        H      0.050900000000     0.220500000000     0.079400000000     0.068518   
H        H      0.087900000000     0.283100000000     0.158100000000     0.068518   
C        C      0.578700000000     0.861900000000     0.111720000000     0.049747   
C        C      0.532700000000     0.823500000000     0.157610000000     0.049747   
C        C      0.688600000000     0.772600000000     0.174320000000     0.049747   
C        C      0.881000000000     0.758800000000     0.144150000000     0.049747   
C        C      0.914700000000     0.799500000000     0.099320000000     0.049747   
C        C      0.452200000000     0.681100000000     0.230310000000     0.049747   
C        C      0.426200000000     0.644200000000     0.280750000000     0.049747   
C        C      0.595800000000     0.664400000000     0.319190000000     0.049747   
C        C      0.795400000000     0.721100000000     0.309820000000     0.049747   
C        C      0.832500000000     0.757300000000     0.259390000000     0.049747   
C        C      0.234400000000     0.588500000000     0.289020000000     0.049747   
C        C      0.202300000000     0.552500000000     0.336790000000     0.049747   
C        C      0.362400000000     0.572200000000     0.375840000000     0.049747   
C        C      0.568400000000     0.627100000000     0.367830000000     0.049747   
C        C      0.751600000000     0.647300000000     0.404610000000     0.049747   
C        C      0.936600000000     0.705500000000     0.394810000000     0.049747   
C        C      0.959600000000     0.742800000000     0.347830000000     0.049747   
C        C      0.281800000000     0.540800000000     0.427070000000     0.049747   
C        C      0.784400000000     0.598400000000     0.450940000000     0.049747   
C        C      0.421300000000     0.638100000000     0.611720000000     0.049747   
C        C      0.467300000000     0.676500000000     0.657610000000     0.049747   
C        C      0.311400000000     0.727400000000     0.674320000000     0.049747   
C        C      0.119000000000     0.741200000000     0.644150000000     0.049747   
C        C      0.085300000000     0.700500000000     0.599320000000     0.049747   
C        C      0.547800000000     0.818900000000     0.730310000000     0.049747   
C        C      0.573800000000     0.855800000000     0.780750000000     0.049747   
C        C      0.404200000000     0.835600000000     0.819190000000     0.049747   
C        C      0.204600000000     0.778900000000     0.809820000000     0.049747   
C        C      0.167500000000     0.742700000000     0.759390000000     0.049747   
C        C      0.765600000000     0.911500000000     0.789020000000     0.049747   
C        C      0.797700000000     0.947500000000     0.836790000000     0.049747   
C        C      0.637600000000     0.927800000000     0.875840000000     0.049747   
C        C      0.431600000000     0.872900000000     0.867830000000     0.049747   
C        C      0.248400000000     0.852700000000     0.904610000000     0.049747   
C        C      0.063400000000     0.794500000000     0.894810000000     0.049747   
C        C      0.040400000000     0.757200000000     0.847830000000     0.049747   
C        C      0.718200000000     0.959200000000     0.927070000000     0.049747   
C        C      0.215600000000     0.901600000000     0.950940000000     0.049747   
C        C      0.421300000000     0.138100000000     0.888280000000     0.049747   
C        C      0.467300000000     0.176500000000     0.842390000000     0.049747   
C        C      0.311400000000     0.227400000000     0.825680000000     0.049747   
C        C      0.119000000000     0.241200000000     0.855850000000     0.049747   
C        C      0.085300000000     0.200500000000     0.900680000000     0.049747   
C        C      0.547800000000     0.318900000000     0.769690000000     0.049747   
C        C      0.573800000000     0.355800000000     0.719250000000     0.049747   
C        C      0.404200000000     0.335600000000     0.680810000000     0.049747   
C        C      0.204600000000     0.278900000000     0.690180000000     0.049747   
C        C      0.167500000000     0.242700000000     0.740610000000     0.049747   
C        C      0.765600000000     0.411500000000     0.710980000000     0.049747   
C        C      0.797700000000     0.447500000000     0.663210000000     0.049747   
C        C      0.637600000000     0.427800000000     0.624160000000     0.049747   
C        C      0.431600000000     0.372900000000     0.632170000000     0.049747   
C        C      0.248400000000     0.352700000000     0.595390000000     0.049747   
C        C      0.063400000000     0.294500000000     0.605190000000     0.049747   
C        C      0.040400000000     0.257200000000     0.652170000000     0.049747   
C        C      0.718200000000     0.459200000000     0.572930000000     0.049747   
C        C      0.215600000000     0.401600000000     0.549060000000     0.049747   
C        C      0.578700000000     0.361900000000     0.388280000000     0.049747   
C        C      0.532700000000     0.323500000000     0.342390000000     0.049747   
C        C      0.688600000000     0.272600000000     0.325680000000     0.049747   
C        C      0.881000000000     0.258800000000     0.355850000000     0.049747   
C        C      0.914700000000     0.299500000000     0.400680000000     0.049747   
C        C      0.452200000000     0.181100000000     0.269690000000     0.049747   
C        C      0.426200000000     0.144200000000     0.219250000000     0.049747   
C        C      0.595800000000     0.164400000000     0.180810000000     0.049747   
C        C      0.795400000000     0.221100000000     0.190180000000     0.049747   
C        C      0.832500000000     0.257300000000     0.240610000000     0.049747   
C        C      0.234400000000     0.088500000000     0.210980000000     0.049747   
C        C      0.202300000000     0.052500000000     0.163210000000     0.049747   
C        C      0.362400000000     0.072200000000     0.124160000000     0.049747   
C        C      0.568400000000     0.127100000000     0.132170000000     0.049747   
C        C      0.751600000000     0.147300000000     0.095390000000     0.049747   
C        C      0.936600000000     0.205500000000     0.105190000000     0.049747   
C        C      0.959600000000     0.242800000000     0.152170000000     0.049747   
C        C      0.281800000000     0.040800000000     0.072930000000     0.049747   
C        C      0.784400000000     0.098400000000     0.049060000000     0.049747   
N        N      0.769000000000     0.850900000000     0.083460000000    -0.187296   
N        N      0.656800000000     0.735900000000     0.223120000000    -0.187296   
N        N      0.231000000000     0.649100000000     0.583460000000    -0.187296   
N        N      0.343200000000     0.764100000000     0.723120000000    -0.187296   
N        N      0.231000000000     0.149100000000     0.916540000000    -0.187296   
N        N      0.343200000000     0.264100000000     0.776880000000    -0.187296   
N        N      0.769000000000     0.350900000000     0.416540000000    -0.187296   
N        N      0.656800000000     0.235900000000     0.276880000000    -0.187296   
O        O      0.302100000000     0.589030000000     0.463790000000    -0.264526   
O        O      0.181600000000     0.471650000000     0.428540000000    -0.264526   
O        O      0.748600000000     0.525450000000     0.445090000000    -0.264526   
O        O      0.868700000000     0.633470000000     0.489780000000    -0.264526   
O        O      0.311200000000     0.666500000000     0.196170000000    -0.264526   
O        O      0.003100000000     0.804500000000     0.248990000000    -0.264526   
O        O      0.697900000000     0.910970000000     0.963790000000    -0.264526   
O        O      0.818400000000     0.028350000000     0.928540000000    -0.264526   
O        O      0.251400000000     0.974550000000     0.945090000000    -0.264526   
O        O      0.131300000000     0.866530000000     0.989780000000    -0.264526   
O        O      0.688800000000     0.833500000000     0.696170000000    -0.264526   
O        O      0.996900000000     0.695500000000     0.748990000000    -0.264526   
O        O      0.697900000000     0.410970000000     0.536210000000    -0.264526   
O        O      0.818400000000     0.528350000000     0.571460000000    -0.264526   
O        O      0.251400000000     0.474550000000     0.554910000000    -0.264526   
O        O      0.131300000000     0.366530000000     0.510220000000    -0.264526   
O        O      0.688800000000     0.333500000000     0.803830000000    -0.264526   
O        O      0.996900000000     0.195500000000     0.751010000000    -0.264526   
O        O      0.302100000000     0.089030000000     0.036210000000    -0.264526   
O        O      0.181600000000     0.971650000000     0.071460000000    -0.264526   
O        O      0.748600000000     0.025450000000     0.054910000000    -0.264526   
O        O      0.868700000000     0.133470000000     0.010220000000    -0.264526   
O        O      0.311200000000     0.166500000000     0.303830000000    -0.264526   
O        O      0.003100000000     0.304500000000     0.251010000000    -0.264526   


