data_XEXLIX_original

_audit_creation_method RASPA-1.0
_audit_creation_date 2022-1-30
_audit_author_name 'Felipe Lopes de Oliveira <felipe.lopes.oliveira@ibm.com>'

_cell_length_a    5.6415
_cell_length_b    14.847
_cell_length_c    27.633
_cell_angle_alpha 90
_cell_angle_beta  90
_cell_angle_gamma 100.149
_cell_volume      2278.31

_symmetry_cell_setting          triclinic
_symmetry_space_group_name_Hall 'P 1'
_symmetry_space_group_name_H-M  'P 1'
_symmetry_Int_Tables_number     1

_symmetry_equiv_pos_as_xyz 'x,y,z'

loop_
_atom_site_label
_atom_site_type_symbol
_atom_site_fract_x
_atom_site_fract_y
_atom_site_fract_z
_atom_site_charge
Zn       Zn     0.960750000000     0.589230000000     0.976280000000     0.463663   
Zn       Zn     0.539250000000     0.910770000000     0.476280000000     0.463663   
Zn       Zn     0.039250000000     0.410770000000     0.023720000000     0.463663   
Zn       Zn     0.460750000000     0.089230000000     0.523720000000     0.463663   
H        H      0.239800000000     0.760500000000     0.422800000000     0.0688395  
H        H      0.222700000000     0.697400000000     0.345600000000     0.0688395  
H        H      0.916700000000     0.820600000000     0.324900000000     0.0688395  
H        H      0.918200000000     0.879000000000     0.403700000000     0.0688395  
H        H      0.920800000000     0.537400000000     0.225000000000     0.0688395  
H        H      0.913800000000     0.486000000000     0.144900000000     0.0688395  
H        H      0.140200000000     0.751700000000     0.091700000000     0.0688395  
H        H      0.163100000000     0.804900000000     0.172000000000     0.0688395  
H        H      0.260200000000     0.739500000000     0.922800000000     0.0688395  
H        H      0.277300000000     0.802600000000     0.845600000000     0.0688395  
H        H      0.583300000000     0.679400000000     0.824900000000     0.0688395  
H        H      0.581800000000     0.621000000000     0.903700000000     0.0688395  
H        H      0.579200000000     0.962600000000     0.725000000000     0.0688395  
H        H      0.586200000000     0.014000000000     0.644900000000     0.0688395  
H        H      0.359800000000     0.748300000000     0.591700000000     0.0688395  
H        H      0.336900000000     0.695100000000     0.672000000000     0.0688395  
H        H      0.760200000000     0.239500000000     0.577200000000     0.0688395  
H        H      0.777300000000     0.302600000000     0.654400000000     0.0688395  
H        H      0.083300000000     0.179400000000     0.675100000000     0.0688395  
H        H      0.081800000000     0.121000000000     0.596300000000     0.0688395  
H        H      0.079200000000     0.462600000000     0.775000000000     0.0688395  
H        H      0.086200000000     0.514000000000     0.855100000000     0.0688395  
H        H      0.859800000000     0.248300000000     0.908300000000     0.0688395  
H        H      0.836900000000     0.195100000000     0.828000000000     0.0688395  
H        H      0.739800000000     0.260500000000     0.077200000000     0.0688395  
H        H      0.722700000000     0.197400000000     0.154400000000     0.0688395  
H        H      0.416700000000     0.320600000000     0.175100000000     0.0688395  
H        H      0.418200000000     0.379000000000     0.096300000000     0.0688395  
H        H      0.420800000000     0.037400000000     0.275000000000     0.0688395  
H        H      0.413800000000     0.986000000000     0.355100000000     0.0688395  
H        H      0.640200000000     0.251700000000     0.408300000000     0.0688395  
H        H      0.663100000000     0.304900000000     0.328000000000     0.0688395  
C        C      0.377900000000     0.773100000000     0.402600000000     0.0476007  
C        C      0.365400000000     0.735700000000     0.356660000000     0.0476007  
C        C      0.565100000000     0.755200000000     0.327300000000     0.0476007  
C        C      0.776300000000     0.808300000000     0.344470000000     0.0476007  
C        C      0.775300000000     0.842900000000     0.391290000000     0.0476007  
C        C      0.706900000000     0.660100000000     0.265520000000     0.0476007  
C        C      0.693500000000     0.627500000000     0.214630000000     0.0476007  
C        C      0.540800000000     0.660600000000     0.180680000000     0.0476007  
C        C      0.398500000000     0.725800000000     0.195020000000     0.0476007  
C        C      0.396300000000     0.756700000000     0.246300000000     0.0476007  
C        C      0.826100000000     0.561700000000     0.201530000000     0.0476007  
C        C      0.820700000000     0.530900000000     0.153660000000     0.0476007  
C        C      0.684100000000     0.563900000000     0.119020000000     0.0476007  
C        C      0.530100000000     0.628400000000     0.131920000000     0.0476007  
C        C      0.365600000000     0.660200000000     0.099360000000     0.0476007  
C        C      0.238800000000     0.727200000000     0.114300000000     0.0476007  
C        C      0.253400000000     0.759700000000     0.162310000000     0.0476007  
C        C      0.729200000000     0.538700000000     0.067080000000     0.0476007  
C        C      0.284300000000     0.612100000000     0.052320000000     0.0476007  
C        C      0.122100000000     0.726900000000     0.902600000000     0.0476007  
C        C      0.134600000000     0.764300000000     0.856660000000     0.0476007  
C        C      0.934900000000     0.744800000000     0.827300000000     0.0476007  
C        C      0.723700000000     0.691700000000     0.844470000000     0.0476007  
C        C      0.724700000000     0.657100000000     0.891290000000     0.0476007  
C        C      0.793100000000     0.839900000000     0.765520000000     0.0476007  
C        C      0.806500000000     0.872500000000     0.714630000000     0.0476007  
C        C      0.959200000000     0.839400000000     0.680680000000     0.0476007  
C        C      0.101500000000     0.774200000000     0.695020000000     0.0476007  
C        C      0.103700000000     0.743300000000     0.746300000000     0.0476007  
C        C      0.673900000000     0.938300000000     0.701530000000     0.0476007  
C        C      0.679300000000     0.969100000000     0.653660000000     0.0476007  
C        C      0.815900000000     0.936100000000     0.619020000000     0.0476007  
C        C      0.969900000000     0.871600000000     0.631920000000     0.0476007  
C        C      0.134400000000     0.839800000000     0.599360000000     0.0476007  
C        C      0.261200000000     0.772800000000     0.614300000000     0.0476007  
C        C      0.246600000000     0.740300000000     0.662310000000     0.0476007  
C        C      0.770800000000     0.961300000000     0.567080000000     0.0476007  
C        C      0.215700000000     0.887900000000     0.552320000000     0.0476007  
C        C      0.622100000000     0.226900000000     0.597400000000     0.0476007  
C        C      0.634600000000     0.264300000000     0.643340000000     0.0476007  
C        C      0.434900000000     0.244800000000     0.672700000000     0.0476007  
C        C      0.223700000000     0.191700000000     0.655530000000     0.0476007  
C        C      0.224700000000     0.157100000000     0.608710000000     0.0476007  
C        C      0.293100000000     0.339900000000     0.734480000000     0.0476007  
C        C      0.306500000000     0.372500000000     0.785370000000     0.0476007  
C        C      0.459200000000     0.339400000000     0.819320000000     0.0476007  
C        C      0.601500000000     0.274200000000     0.804980000000     0.0476007  
C        C      0.603700000000     0.243300000000     0.753700000000     0.0476007  
C        C      0.173900000000     0.438300000000     0.798470000000     0.0476007  
C        C      0.179300000000     0.469100000000     0.846340000000     0.0476007  
C        C      0.315900000000     0.436100000000     0.880980000000     0.0476007  
C        C      0.469900000000     0.371600000000     0.868080000000     0.0476007  
C        C      0.634400000000     0.339800000000     0.900640000000     0.0476007  
C        C      0.761200000000     0.272800000000     0.885700000000     0.0476007  
C        C      0.746600000000     0.240300000000     0.837690000000     0.0476007  
C        C      0.270800000000     0.461300000000     0.932920000000     0.0476007  
C        C      0.715700000000     0.387900000000     0.947680000000     0.0476007  
C        C      0.877900000000     0.273100000000     0.097400000000     0.0476007  
C        C      0.865400000000     0.235700000000     0.143340000000     0.0476007  
C        C      0.065100000000     0.255200000000     0.172700000000     0.0476007  
C        C      0.276300000000     0.308300000000     0.155530000000     0.0476007  
C        C      0.275300000000     0.342900000000     0.108710000000     0.0476007  
C        C      0.206900000000     0.160100000000     0.234480000000     0.0476007  
C        C      0.193500000000     0.127500000000     0.285370000000     0.0476007  
C        C      0.040800000000     0.160600000000     0.319320000000     0.0476007  
C        C      0.898500000000     0.225800000000     0.304980000000     0.0476007  
C        C      0.896300000000     0.256700000000     0.253700000000     0.0476007  
C        C      0.326100000000     0.061700000000     0.298470000000     0.0476007  
C        C      0.320700000000     0.030900000000     0.346340000000     0.0476007  
C        C      0.184100000000     0.063900000000     0.380980000000     0.0476007  
C        C      0.030100000000     0.128400000000     0.368080000000     0.0476007  
C        C      0.865600000000     0.160200000000     0.400640000000     0.0476007  
C        C      0.738800000000     0.227200000000     0.385700000000     0.0476007  
C        C      0.753400000000     0.259700000000     0.337690000000     0.0476007  
C        C      0.229200000000     0.038700000000     0.432920000000     0.0476007  
C        C      0.784300000000     0.112100000000     0.447680000000     0.0476007  
N        N      0.576200000000     0.826500000000     0.419780000000    -0.181407   
N        N      0.555700000000     0.722700000000     0.277760000000    -0.181407   
N        N      0.923800000000     0.673500000000     0.919780000000    -0.181407   
N        N      0.944300000000     0.777300000000     0.777760000000    -0.181407   
N        N      0.423800000000     0.173500000000     0.580220000000    -0.181407   
N        N      0.444300000000     0.277300000000     0.722240000000    -0.181407   
N        N      0.076200000000     0.326500000000     0.080220000000    -0.181407   
N        N      0.055700000000     0.222700000000     0.222240000000    -0.181407   
O        O      0.756600000000     0.601500000000     0.035730000000    -0.25933    
O        O      0.762300000000     0.457400000000     0.060930000000    -0.25933    
O        O      0.232100000000     0.661800000000     0.018140000000    -0.25933    
O        O      0.247800000000     0.525900000000     0.053960000000    -0.25933    
O        O      0.270900000000     0.809200000000     0.261050000000    -0.25933    
O        O      0.839000000000     0.635300000000     0.295990000000    -0.25933    
O        O      0.743400000000     0.898500000000     0.535730000000    -0.25933    
O        O      0.737700000000     0.042600000000     0.560930000000    -0.25933    
O        O      0.267900000000     0.838200000000     0.518140000000    -0.25933    
O        O      0.252200000000     0.974100000000     0.553960000000    -0.25933    
O        O      0.229100000000     0.690800000000     0.761050000000    -0.25933    
O        O      0.661000000000     0.864700000000     0.795990000000    -0.25933    
O        O      0.243400000000     0.398500000000     0.964270000000    -0.25933    
O        O      0.237700000000     0.542600000000     0.939070000000    -0.25933    
O        O      0.767900000000     0.338200000000     0.981860000000    -0.25933    
O        O      0.752200000000     0.474100000000     0.946040000000    -0.25933    
O        O      0.729100000000     0.190800000000     0.738950000000    -0.25933    
O        O      0.161000000000     0.364700000000     0.704010000000    -0.25933    
O        O      0.256600000000     0.101500000000     0.464270000000    -0.25933    
O        O      0.262300000000     0.957400000000     0.439070000000    -0.25933    
O        O      0.732100000000     0.161800000000     0.481860000000    -0.25933    
O        O      0.747800000000     0.025900000000     0.446040000000    -0.25933    
O        O      0.770900000000     0.309200000000     0.238950000000    -0.25933    
O        O      0.339000000000     0.135300000000     0.204010000000    -0.25933    


