data_XILDUT_original

_audit_creation_method RASPA-1.0
_audit_creation_date 2022-1-29
_audit_author_name 'Felipe Lopes de Oliveira <felipe.lopes.oliveira@ibm.com>'

_cell_length_a    12.7907
_cell_length_b    12.7907
_cell_length_c    19.258
_cell_angle_alpha 71.1226
_cell_angle_beta  71.1226
_cell_angle_gamma 86.7339
_cell_volume      2816.83

_symmetry_cell_setting          triclinic
_symmetry_space_group_name_Hall 'P 1'
_symmetry_space_group_name_H-M  'P 1'
_symmetry_Int_Tables_number     1

_symmetry_equiv_pos_as_xyz 'x,y,z'

loop_
_atom_site_label
_atom_site_type_symbol
_atom_site_fract_x
_atom_site_fract_y
_atom_site_fract_z
_atom_site_charge
Na       Na     0.817090000000     0.018450000000     0.242560000000     2.58017    
Na       Na     0.981550000000     0.182910000000     0.257440000000     2.58017    
Na       Na     0.182910000000     0.981550000000     0.757440000000     2.58017    
Na       Na     0.018450000000     0.817090000000     0.742560000000     2.58017    
Zn       Zn     0.725280000000     0.791180000000     0.411580000000     0.467382   
Zn       Zn     0.208820000000     0.274720000000     0.088420000000     0.467382   
Zn       Zn     0.274720000000     0.208820000000     0.588420000000     0.467382   
Zn       Zn     0.791180000000     0.725280000000     0.911580000000     0.467382   
H        H      0.786000000000     0.182200000000     0.296800000000     0.358185   
H        H      0.817800000000     0.214000000000     0.203200000000     0.358185   
H        H      0.214000000000     0.817800000000     0.703200000000     0.358185   
H        H      0.182200000000     0.786000000000     0.796800000000     0.358185   
C        C      0.840100000000     0.744900000000     0.273900000000     0.162675   
C        C      0.905000000000     0.662800000000     0.236100000000     0.162675   
C        C      0.869900000000     0.625500000000     0.186300000000     0.162675   
C        C      0.932400000000     0.553000000000     0.150500000000     0.162675   
C        C      0.029800000000     0.516200000000     0.164300000000     0.162675   
C        C      0.064100000000     0.552500000000     0.215200000000     0.162675   
C        C      0.002600000000     0.625400000000     0.250000000000     0.162675   
C        C      0.104800000000     0.446800000000     0.120200000000     0.162675   
C        C      0.885000000000     0.943800000000     0.406700000000     0.162675   
C        C      0.947000000000     0.975200000000     0.453900000000     0.162675   
C        C      0.051300000000     0.940300000000     0.450400000000     0.162675   
C        C      0.894300000000     0.035900000000     0.502800000000     0.162675   
C        C      0.718300000000     0.265300000000     0.226400000000     0.162675   
C        C      0.255100000000     0.159900000000     0.226100000000     0.162675   
C        C      0.337200000000     0.095000000000     0.263900000000     0.162675   
C        C      0.374500000000     0.130100000000     0.313700000000     0.162675   
C        C      0.447000000000     0.067600000000     0.349500000000     0.162675   
C        C      0.483800000000     0.970200000000     0.335700000000     0.162675   
C        C      0.447500000000     0.935900000000     0.284800000000     0.162675   
C        C      0.374600000000     0.997400000000     0.250000000000     0.162675   
C        C      0.553200000000     0.895200000000     0.379800000000     0.162675   
C        C      0.056200000000     0.115000000000     0.093300000000     0.162675   
C        C      0.024800000000     0.053000000000     0.046100000000     0.162675   
C        C      0.059700000000     0.948700000000     0.049600000000     0.162675   
C        C      0.964100000000     0.105700000000     0.997200000000     0.162675   
C        C      0.734700000000     0.281700000000     0.273600000000     0.162675   
C        C      0.159900000000     0.255100000000     0.726100000000     0.162675   
C        C      0.095000000000     0.337200000000     0.763900000000     0.162675   
C        C      0.130100000000     0.374500000000     0.813700000000     0.162675   
C        C      0.067600000000     0.447000000000     0.849500000000     0.162675   
C        C      0.970200000000     0.483800000000     0.835700000000     0.162675   
C        C      0.935900000000     0.447500000000     0.784800000000     0.162675   
C        C      0.997400000000     0.374600000000     0.750000000000     0.162675   
C        C      0.895200000000     0.553200000000     0.879800000000     0.162675   
C        C      0.115000000000     0.056200000000     0.593300000000     0.162675   
C        C      0.053000000000     0.024800000000     0.546100000000     0.162675   
C        C      0.948700000000     0.059700000000     0.549600000000     0.162675   
C        C      0.105700000000     0.964100000000     0.497200000000     0.162675   
C        C      0.281700000000     0.734700000000     0.773600000000     0.162675   
C        C      0.744900000000     0.840100000000     0.773900000000     0.162675   
C        C      0.662800000000     0.905000000000     0.736100000000     0.162675   
C        C      0.625500000000     0.869900000000     0.686300000000     0.162675   
C        C      0.553000000000     0.932400000000     0.650500000000     0.162675   
C        C      0.516200000000     0.029800000000     0.664300000000     0.162675   
C        C      0.552500000000     0.064100000000     0.715200000000     0.162675   
C        C      0.625400000000     0.002600000000     0.750000000000     0.162675   
C        C      0.446800000000     0.104800000000     0.620200000000     0.162675   
C        C      0.943800000000     0.885000000000     0.906700000000     0.162675   
C        C      0.975200000000     0.947000000000     0.953900000000     0.162675   
C        C      0.940300000000     0.051300000000     0.950400000000     0.162675   
C        C      0.035900000000     0.894300000000     0.002800000000     0.162675   
C        C      0.265300000000     0.718300000000     0.726400000000     0.162675   
Cl       Cl     0.749320000000     0.673240000000     0.167220000000    -0.27138    
Cl       Cl     0.891530000000     0.512950000000     0.085030000000    -0.27138    
Cl       Cl     0.049040000000     0.674520000000     0.309620000000    -0.27138    
Cl       Cl     0.183570000000     0.501870000000     0.235030000000    -0.27138    
Cl       Cl     0.117000000000     0.865520000000     0.389330000000    -0.27138    
Cl       Cl     0.763650000000     0.081810000000     0.504800000000    -0.27138    
Cl       Cl     0.326760000000     0.250680000000     0.332780000000    -0.27138    
Cl       Cl     0.487050000000     0.108470000000     0.414970000000    -0.27138    
Cl       Cl     0.325480000000     0.950960000000     0.190380000000    -0.27138    
Cl       Cl     0.498130000000     0.816430000000     0.264970000000    -0.27138    
Cl       Cl     0.134480000000     0.883000000000     0.110670000000    -0.27138    
Cl       Cl     0.918190000000     0.236350000000     0.995200000000    -0.27138    
Cl       Cl     0.250680000000     0.326760000000     0.832780000000    -0.27138    
Cl       Cl     0.108470000000     0.487050000000     0.914970000000    -0.27138    
Cl       Cl     0.950960000000     0.325480000000     0.690380000000    -0.27138    
Cl       Cl     0.816430000000     0.498130000000     0.764970000000    -0.27138    
Cl       Cl     0.883000000000     0.134480000000     0.610670000000    -0.27138    
Cl       Cl     0.236350000000     0.918190000000     0.495200000000    -0.27138    
Cl       Cl     0.673240000000     0.749320000000     0.667220000000    -0.27138    
Cl       Cl     0.512950000000     0.891530000000     0.585030000000    -0.27138    
Cl       Cl     0.674520000000     0.049040000000     0.809620000000    -0.27138    
Cl       Cl     0.501870000000     0.183570000000     0.735030000000    -0.27138    
Cl       Cl     0.865520000000     0.117000000000     0.889330000000    -0.27138    
Cl       Cl     0.081810000000     0.763650000000     0.004800000000    -0.27138    
O        O      0.783200000000     0.699000000000     0.345200000000    -0.598804   
O        O      0.849000000000     0.842000000000     0.235400000000    -0.598804   
O        O      0.081800000000     0.344200000000     0.145200000000    -0.598804   
O        O      0.182800000000     0.492600000000     0.063700000000    -0.598804   
O        O      0.892900000000     0.004900000000     0.341600000000    -0.598804   
O        O      0.830400000000     0.850800000000     0.443700000000    -0.598804   
O        O      0.301000000000     0.216800000000     0.154800000000    -0.598804   
O        O      0.158000000000     0.151000000000     0.264600000000    -0.598804   
O        O      0.655800000000     0.918200000000     0.354800000000    -0.598804   
O        O      0.507400000000     0.817200000000     0.436300000000    -0.598804   
O        O      0.995100000000     0.107100000000     0.158400000000    -0.598804   
O        O      0.149200000000     0.169600000000     0.056300000000    -0.598804   
O        O      0.216800000000     0.301000000000     0.654800000000    -0.598804   
O        O      0.151000000000     0.158000000000     0.764600000000    -0.598804   
O        O      0.918200000000     0.655800000000     0.854800000000    -0.598804   
O        O      0.817200000000     0.507400000000     0.936300000000    -0.598804   
O        O      0.107100000000     0.995100000000     0.658400000000    -0.598804   
O        O      0.169600000000     0.149200000000     0.556300000000    -0.598804   
O        O      0.699000000000     0.783200000000     0.845200000000    -0.598804   
O        O      0.842000000000     0.849000000000     0.735400000000    -0.598804   
O        O      0.344200000000     0.081800000000     0.645200000000    -0.598804   
O        O      0.492600000000     0.182800000000     0.563700000000    -0.598804   
O        O      0.004900000000     0.892900000000     0.841600000000    -0.598804   
O        O      0.850800000000     0.830400000000     0.943700000000    -0.598804   
O        O      0.796100000000     0.203900000000     0.250000000000    -0.598804   
O        O      0.203900000000     0.796100000000     0.750000000000    -0.598804   


