data_XINWUO_original

_audit_creation_method RASPA-1.0
_audit_creation_date 2022-1-31
_audit_author_name 'Felipe Lopes de Oliveira <felipe.lopes.oliveira@ibm.com>'

_cell_length_a    11.3887
_cell_length_b    13.7495
_cell_length_c    13.7495
_cell_angle_alpha 80.1239
_cell_angle_beta  65.5342
_cell_angle_gamma 65.5343
_cell_volume      1783.73

_symmetry_cell_setting          triclinic
_symmetry_space_group_name_Hall 'P 1'
_symmetry_space_group_name_H-M  'P 1'
_symmetry_Int_Tables_number     1

_symmetry_equiv_pos_as_xyz 'x,y,z'

loop_
_atom_site_label
_atom_site_type_symbol
_atom_site_fract_x
_atom_site_fract_y
_atom_site_fract_z
_atom_site_charge
Zn       Zn     0.360860000000     0.527060000000     0.449200000000     0.262475   
Zn       Zn     0.837120000000     0.972940000000     0.050800000000     0.262475   
Zn       Zn     0.387920000000     0.949200000000     0.472940000000     0.262475   
Zn       Zn     0.310060000000     0.550800000000     0.027060000000     0.262475   
Zn       Zn     0.639140000000     0.472940000000     0.550800000000     0.262475   
Zn       Zn     0.162880000000     0.027060000000     0.949200000000     0.262475   
Zn       Zn     0.612080000000     0.050800000000     0.527060000000     0.262475   
Zn       Zn     0.689940000000     0.449200000000     0.972940000000     0.262475   
H        H      0.675000000000     0.657000000000     0.578200000000     0.169968   
H        H      0.567200000000     0.773300000000     0.615300000000     0.169968   
H        H      0.682400000000     0.753200000000     0.499200000000     0.169968   
H        H      0.303600000000     0.774000000000     0.426400000000     0.169968   
H        H      0.410200000000     0.843000000000     0.921800000000     0.169968   
H        H      0.455800000000     0.726700000000     0.884700000000     0.169968   
H        H      0.434800000000     0.746800000000     0.000800000000     0.169968   
H        H      0.004000000000     0.726000000000     0.073600000000     0.169968   
H        H      0.832000000000     0.078200000000     0.343000000000     0.169968   
H        H      0.840500000000     0.115300000000     0.226700000000     0.169968   
H        H      0.935600000000     0.999200000000     0.246800000000     0.169968   
H        H      0.577600000000     0.926400000000     0.226000000000     0.169968   
H        H      0.753200000000     0.421800000000     0.157000000000     0.169968   
H        H      0.682500000000     0.384700000000     0.273300000000     0.169968   
H        H      0.681600000000     0.500800000000     0.253200000000     0.169968   
H        H      0.230000000000     0.573600000000     0.274000000000     0.169968   
H        H      0.325000000000     0.343000000000     0.421800000000     0.169968   
H        H      0.432800000000     0.226700000000     0.384700000000     0.169968   
H        H      0.317600000000     0.246800000000     0.500800000000     0.169968   
H        H      0.696400000000     0.226000000000     0.573600000000     0.169968   
H        H      0.589800000000     0.157000000000     0.078200000000     0.169968   
H        H      0.544200000000     0.273300000000     0.115300000000     0.169968   
H        H      0.565200000000     0.253200000000     0.999200000000     0.169968   
H        H      0.996000000000     0.274000000000     0.926400000000     0.169968   
H        H      0.168000000000     0.921800000000     0.657000000000     0.169968   
H        H      0.159500000000     0.884700000000     0.773300000000     0.169968   
H        H      0.064400000000     0.000800000000     0.753200000000     0.169968   
H        H      0.422400000000     0.073600000000     0.774000000000     0.169968   
H        H      0.246800000000     0.578200000000     0.843000000000     0.169968   
H        H      0.317500000000     0.615300000000     0.726700000000     0.169968   
H        H      0.318400000000     0.499200000000     0.746800000000     0.169968   
H        H      0.770000000000     0.426400000000     0.726000000000     0.169968   
C        C      0.620900000000     0.724700000000     0.555900000000    -0.130746   
C        C      0.524700000000     0.709700000000     0.517100000000    -0.130746   
C        C      0.372130000000     0.739490000000     0.454650000000    -0.130746   
C        C      0.401500000000     0.775300000000     0.944100000000    -0.130746   
C        C      0.251500000000     0.790300000000     0.982900000000    -0.130746   
C        C      0.066270000000     0.760510000000     0.045350000000    -0.130746   
C        C      0.845600000000     0.055900000000     0.275300000000    -0.130746   
C        C      0.734400000000     0.017100000000     0.290300000000    -0.130746   
C        C      0.611620000000     0.954650000000     0.260510000000    -0.130746   
C        C      0.676800000000     0.444100000000     0.224700000000    -0.130746   
C        C      0.541800000000     0.482900000000     0.209700000000    -0.130746   
C        C      0.326780000000     0.545350000000     0.239490000000    -0.130746   
C        C      0.379100000000     0.275300000000     0.444100000000    -0.130746   
C        C      0.475300000000     0.290300000000     0.482900000000    -0.130746   
C        C      0.627870000000     0.260510000000     0.545350000000    -0.130746   
C        C      0.598500000000     0.224700000000     0.055900000000    -0.130746   
C        C      0.748500000000     0.209700000000     0.017100000000    -0.130746   
C        C      0.933730000000     0.239490000000     0.954650000000    -0.130746   
C        C      0.154400000000     0.944100000000     0.724700000000    -0.130746   
C        C      0.265600000000     0.982900000000     0.709700000000    -0.130746   
C        C      0.388380000000     0.045350000000     0.739490000000    -0.130746   
C        C      0.323200000000     0.555900000000     0.775300000000    -0.130746   
C        C      0.458200000000     0.517100000000     0.790300000000    -0.130746   
C        C      0.673220000000     0.454650000000     0.760510000000    -0.130746   
N        N      0.419260000000     0.636680000000     0.473200000000    -0.18337    
N        N      0.519170000000     0.617030000000     0.513830000000    -0.18337    
N        N      0.433990000000     0.789510000000     0.481110000000    -0.18337    
N        N      0.029140000000     0.863320000000     0.026800000000    -0.18337    
N        N      0.150030000000     0.882970000000     0.986170000000    -0.18337    
N        N      0.204610000000     0.710490000000     0.018890000000    -0.18337    
N        N      0.555940000000     0.973200000000     0.363320000000    -0.18337    
N        N      0.636200000000     0.013830000000     0.382970000000    -0.18337    
N        N      0.723500000000     0.981110000000     0.210490000000    -0.18337    
N        N      0.392460000000     0.526800000000     0.136680000000    -0.18337    
N        N      0.533000000000     0.486170000000     0.117030000000    -0.18337    
N        N      0.415100000000     0.518890000000     0.289510000000    -0.18337    
N        N      0.580740000000     0.363320000000     0.526800000000    -0.18337    
N        N      0.480830000000     0.382970000000     0.486170000000    -0.18337    
N        N      0.566010000000     0.210490000000     0.518890000000    -0.18337    
N        N      0.970860000000     0.136680000000     0.973200000000    -0.18337    
N        N      0.849970000000     0.117030000000     0.013830000000    -0.18337    
N        N      0.795390000000     0.289510000000     0.981110000000    -0.18337    
N        N      0.444060000000     0.026800000000     0.636680000000    -0.18337    
N        N      0.363800000000     0.986170000000     0.617030000000    -0.18337    
N        N      0.276500000000     0.018890000000     0.789510000000    -0.18337    
N        N      0.607540000000     0.473200000000     0.863320000000    -0.18337    
N        N      0.467000000000     0.513830000000     0.882970000000    -0.18337    
N        N      0.584900000000     0.481110000000     0.710490000000    -0.18337    


