data_XOHLEM_original

_audit_creation_method RASPA-1.0
_audit_creation_date 2022-1-28
_audit_author_name 'Felipe Lopes de Oliveira <felipe.lopes.oliveira@ibm.com>'

_cell_length_a    10.5787
_cell_length_b    10.5787
_cell_length_c    15.828
_cell_angle_alpha 90
_cell_angle_beta  90
_cell_angle_gamma 104.376
_cell_volume      1715.83

_symmetry_cell_setting          triclinic
_symmetry_space_group_name_Hall 'P 1'
_symmetry_space_group_name_H-M  'P 1'
_symmetry_Int_Tables_number     1

_symmetry_equiv_pos_as_xyz 'x,y,z'

loop_
_atom_site_label
_atom_site_type_symbol
_atom_site_fract_x
_atom_site_fract_y
_atom_site_fract_z
_atom_site_charge
Zn       Zn     0.128860000000     0.237520000000     0.923790000000     0.439285   
Zn       Zn     0.442070000000     0.278710000000     0.943360000000     0.439285   
Zn       Zn     0.871140000000     0.762480000000     0.423790000000     0.439285   
Zn       Zn     0.557930000000     0.721290000000     0.443360000000     0.439285   
Zn       Zn     0.762480000000     0.871140000000     0.576210000000     0.439285   
Zn       Zn     0.721290000000     0.557930000000     0.556640000000     0.439285   
Zn       Zn     0.237520000000     0.128860000000     0.076210000000     0.439285   
Zn       Zn     0.278710000000     0.442070000000     0.056640000000     0.439285   
H        H      0.505700000000     0.080500000000     0.712000000000     0.0677995  
H        H      0.253900000000     0.829900000000     0.549400000000     0.0677995  
H        H      0.114600000000     0.046200000000     0.716300000000     0.0677995  
H        H      0.494300000000     0.919500000000     0.212000000000     0.0677995  
H        H      0.746100000000     0.170100000000     0.049400000000     0.0677995  
H        H      0.885400000000     0.953800000000     0.216300000000     0.0677995  
H        H      0.919500000000     0.494300000000     0.788000000000     0.0677995  
H        H      0.170100000000     0.746100000000     0.950600000000     0.0677995  
H        H      0.953800000000     0.885400000000     0.783700000000     0.0677995  
H        H      0.080500000000     0.505700000000     0.288000000000     0.0677995  
H        H      0.829900000000     0.253900000000     0.450600000000     0.0677995  
H        H      0.046200000000     0.114600000000     0.283700000000     0.0677995  
C        C      0.315500000000     0.089100000000     0.719700000000     0.0831123  
C        C      0.422300000000     0.050700000000     0.689800000000     0.0831123  
C        C      0.389300000000     0.952500000000     0.615200000000     0.0831123  
C        C      0.267500000000     0.896700000000     0.589200000000     0.0831123  
C        C      0.154300000000     0.939900000000     0.622900000000     0.0831123  
C        C      0.184500000000     0.025700000000     0.688400000000     0.0831123  
C        C      0.329000000000     0.174400000000     0.791500000000     0.0831123  
C        C      0.510000000000     0.901400000000     0.583300000000     0.0831123  
C        C      0.029000000000     0.896000000000     0.577200000000     0.0831123  
C        C      0.684500000000     0.910900000000     0.219700000000     0.0831123  
C        C      0.577700000000     0.949300000000     0.189800000000     0.0831123  
C        C      0.610700000000     0.047500000000     0.115200000000     0.0831123  
C        C      0.732500000000     0.103300000000     0.089200000000     0.0831123  
C        C      0.845700000000     0.060100000000     0.122900000000     0.0831123  
C        C      0.815500000000     0.974300000000     0.188400000000     0.0831123  
C        C      0.671000000000     0.825600000000     0.291500000000     0.0831123  
C        C      0.490000000000     0.098600000000     0.083300000000     0.0831123  
C        C      0.971000000000     0.104000000000     0.077200000000     0.0831123  
C        C      0.910900000000     0.684500000000     0.780300000000     0.0831123  
C        C      0.949300000000     0.577700000000     0.810200000000     0.0831123  
C        C      0.047500000000     0.610700000000     0.884800000000     0.0831123  
C        C      0.103300000000     0.732500000000     0.910800000000     0.0831123  
C        C      0.060100000000     0.845700000000     0.877100000000     0.0831123  
C        C      0.974300000000     0.815500000000     0.811600000000     0.0831123  
C        C      0.825600000000     0.671000000000     0.708500000000     0.0831123  
C        C      0.098600000000     0.490000000000     0.916700000000     0.0831123  
C        C      0.104000000000     0.971000000000     0.922800000000     0.0831123  
C        C      0.089100000000     0.315500000000     0.280300000000     0.0831123  
C        C      0.050700000000     0.422300000000     0.310200000000     0.0831123  
C        C      0.952500000000     0.389300000000     0.384800000000     0.0831123  
C        C      0.896700000000     0.267500000000     0.410800000000     0.0831123  
C        C      0.939900000000     0.154300000000     0.377100000000     0.0831123  
C        C      0.025700000000     0.184500000000     0.311600000000     0.0831123  
C        C      0.174400000000     0.329000000000     0.208500000000     0.0831123  
C        C      0.901400000000     0.510000000000     0.416700000000     0.0831123  
C        C      0.896000000000     0.029000000000     0.422800000000     0.0831123  
O        O      0.250910000000     0.246090000000     0.804600000000    -0.281535   
O        O      0.431290000000     0.175510000000     0.842330000000    -0.281535   
O        O      0.617070000000     0.936930000000     0.617700000000    -0.281535   
O        O      0.474870000000     0.829130000000     0.518600000000    -0.281535   
O        O      0.943660000000     0.953140000000     0.607420000000    -0.281535   
O        O      0.011130000000     0.801590000000     0.529100000000    -0.281535   
O        O      0.749090000000     0.753910000000     0.304600000000    -0.281535   
O        O      0.568710000000     0.824490000000     0.342330000000    -0.281535   
O        O      0.382930000000     0.063070000000     0.117700000000    -0.281535   
O        O      0.525130000000     0.170870000000     0.018600000000    -0.281535   
O        O      0.056340000000     0.046860000000     0.107420000000    -0.281535   
O        O      0.988870000000     0.198410000000     0.029100000000    -0.281535   
O        O      0.753910000000     0.749090000000     0.695400000000    -0.281535   
O        O      0.824490000000     0.568710000000     0.657670000000    -0.281535   
O        O      0.063070000000     0.382930000000     0.882300000000    -0.281535   
O        O      0.170870000000     0.525130000000     0.981400000000    -0.281535   
O        O      0.046860000000     0.056340000000     0.892580000000    -0.281535   
O        O      0.198410000000     0.988870000000     0.970900000000    -0.281535   
O        O      0.246090000000     0.250910000000     0.195400000000    -0.281535   
O        O      0.175510000000     0.431290000000     0.157670000000    -0.281535   
O        O      0.936930000000     0.617070000000     0.382300000000    -0.281535   
O        O      0.829130000000     0.474870000000     0.481400000000    -0.281535   
O        O      0.953140000000     0.943660000000     0.392580000000    -0.281535   
O        O      0.801590000000     0.011130000000     0.470900000000    -0.281535   
O        O      0.283200000000     0.283200000000     0.000000000000    -0.281535   
O        O      0.716800000000     0.716800000000     0.500000000000    -0.281535   


