data_XOQXEH_original

_audit_creation_method RASPA-1.0
_audit_creation_date 2022-1-28
_audit_author_name 'Felipe Lopes de Oliveira <felipe.lopes.oliveira@ibm.com>'

_cell_length_a    7.528
_cell_length_b    17.853
_cell_length_c    23.757
_cell_angle_alpha 92.534
_cell_angle_beta  90
_cell_angle_gamma 90
_cell_volume      3189.76

_symmetry_cell_setting          triclinic
_symmetry_space_group_name_Hall 'P 1'
_symmetry_space_group_name_H-M  'P 1'
_symmetry_Int_Tables_number     1

_symmetry_equiv_pos_as_xyz 'x,y,z'

loop_
_atom_site_label
_atom_site_type_symbol
_atom_site_fract_x
_atom_site_fract_y
_atom_site_fract_z
_atom_site_charge
Zn       Zn     0.973740000000     0.421690000000     0.968430000000     0.471983   
Zn       Zn     0.294990000000     0.490590000000     0.912700000000     0.471983   
Zn       Zn     0.973740000000     0.078310000000     0.531570000000     0.471983   
Zn       Zn     0.294990000000     0.009410000000     0.587300000000     0.471983   
Zn       Zn     0.026260000000     0.578310000000     0.031570000000     0.471983   
Zn       Zn     0.705010000000     0.509410000000     0.087300000000     0.471983   
Zn       Zn     0.026260000000     0.921690000000     0.468430000000     0.471983   
Zn       Zn     0.705010000000     0.990590000000     0.412700000000     0.471983   
H        H      0.066800000000     0.504700000000     0.758100000000     0.127743   
H        H      0.934600000000     0.509400000000     0.669700000000     0.127743   
H        H      0.494800000000     0.410800000000     0.730800000000     0.127743   
H        H      0.624300000000     0.410000000000     0.819500000000     0.127743   
H        H      0.164800000000     0.298400000000     0.570900000000     0.127743   
H        H      0.275800000000     0.418200000000     0.592000000000     0.127743   
H        H      0.740900000000     0.326600000000     0.640500000000     0.127743   
H        H      0.630400000000     0.207400000000     0.617700000000     0.127743   
H        H      0.556000000000     0.609200000000     0.785700000000     0.127743   
H        H      0.745600000000     0.675800000000     0.728900000000     0.127743   
H        H      0.078300000000     0.713400000000     0.860700000000     0.127743   
H        H      0.888600000000     0.647600000000     0.917400000000     0.127743   
H        H      0.066800000000     0.995300000000     0.741900000000     0.127743   
H        H      0.934600000000     0.990600000000     0.830300000000     0.127743   
H        H      0.494800000000     0.089200000000     0.769200000000     0.127743   
H        H      0.624300000000     0.090000000000     0.680500000000     0.127743   
H        H      0.164800000000     0.201600000000     0.929100000000     0.127743   
H        H      0.275800000000     0.081800000000     0.908000000000     0.127743   
H        H      0.740900000000     0.173400000000     0.859500000000     0.127743   
H        H      0.630400000000     0.292600000000     0.882300000000     0.127743   
H        H      0.556000000000     0.890800000000     0.714300000000     0.127743   
H        H      0.745600000000     0.824200000000     0.771100000000     0.127743   
H        H      0.078300000000     0.786600000000     0.639300000000     0.127743   
H        H      0.888600000000     0.852400000000     0.582600000000     0.127743   
H        H      0.933200000000     0.495300000000     0.241900000000     0.127743   
H        H      0.065400000000     0.490600000000     0.330300000000     0.127743   
H        H      0.505200000000     0.589200000000     0.269200000000     0.127743   
H        H      0.375700000000     0.590000000000     0.180500000000     0.127743   
H        H      0.835200000000     0.701600000000     0.429100000000     0.127743   
H        H      0.724200000000     0.581800000000     0.408000000000     0.127743   
H        H      0.259100000000     0.673400000000     0.359500000000     0.127743   
H        H      0.369600000000     0.792600000000     0.382300000000     0.127743   
H        H      0.444000000000     0.390800000000     0.214300000000     0.127743   
H        H      0.254400000000     0.324200000000     0.271100000000     0.127743   
H        H      0.921700000000     0.286600000000     0.139300000000     0.127743   
H        H      0.111400000000     0.352400000000     0.082600000000     0.127743   
H        H      0.933200000000     0.004700000000     0.258100000000     0.127743   
H        H      0.065400000000     0.009400000000     0.169700000000     0.127743   
H        H      0.505200000000     0.910800000000     0.230800000000     0.127743   
H        H      0.375700000000     0.910000000000     0.319500000000     0.127743   
H        H      0.835200000000     0.798400000000     0.070900000000     0.127743   
H        H      0.724200000000     0.918200000000     0.092000000000     0.127743   
H        H      0.259100000000     0.826600000000     0.140500000000     0.127743   
H        H      0.369600000000     0.707400000000     0.117700000000     0.127743   
H        H      0.444000000000     0.109200000000     0.285700000000     0.127743   
H        H      0.254400000000     0.175800000000     0.228900000000     0.127743   
H        H      0.921700000000     0.213400000000     0.360700000000     0.127743   
H        H      0.111400000000     0.147600000000     0.417400000000     0.127743   
C        C      0.945900000000     0.457150000000     0.854150000000     0.130425   
C        C      0.858700000000     0.457220000000     0.797250000000     0.130425   
C        C      0.949500000000     0.486100000000     0.752580000000     0.130425   
C        C      0.871800000000     0.488360000000     0.699840000000     0.130425   
C        C      0.701400000000     0.459760000000     0.691140000000     0.130425   
C        C      0.611100000000     0.430430000000     0.736310000000     0.130425   
C        C      0.688100000000     0.429550000000     0.788900000000     0.130425   
C        C      0.603200000000     0.461630000000     0.633940000000     0.130425   
C        C      0.728500000000     0.479970000000     0.584840000000     0.130425   
C        C      0.464400000000     0.525070000000     0.640250000000     0.130425   
C        C      0.308900000000     0.163900000000     0.580390000000     0.130425   
C        C      0.384700000000     0.241130000000     0.593260000000     0.130425   
C        C      0.282000000000     0.304140000000     0.585200000000     0.130425   
C        C      0.347700000000     0.375510000000     0.597770000000     0.130425   
C        C      0.519800000000     0.384360000000     0.618840000000     0.130425   
C        C      0.623500000000     0.321050000000     0.626280000000     0.130425   
C        C      0.557500000000     0.250100000000     0.613140000000     0.130425   
C        C      0.575200000000     0.583210000000     0.894980000000     0.130425   
C        C      0.700500000000     0.623700000000     0.857770000000     0.130425   
C        C      0.660900000000     0.631320000000     0.801260000000     0.130425   
C        C      0.773700000000     0.671030000000     0.767550000000     0.130425   
C        C      0.927700000000     0.704110000000     0.789510000000     0.130425   
C        C      0.970700000000     0.693430000000     0.845540000000     0.130425   
C        C      0.858100000000     0.654100000000     0.879120000000     0.130425   
C        C      0.164800000000     0.807170000000     0.782340000000     0.130425   
C        C      0.945900000000     0.042850000000     0.645850000000     0.130425   
C        C      0.858700000000     0.042780000000     0.702750000000     0.130425   
C        C      0.949500000000     0.013900000000     0.747420000000     0.130425   
C        C      0.871800000000     0.011640000000     0.800160000000     0.130425   
C        C      0.701400000000     0.040240000000     0.808860000000     0.130425   
C        C      0.611100000000     0.069570000000     0.763690000000     0.130425   
C        C      0.688100000000     0.070450000000     0.711100000000     0.130425   
C        C      0.603200000000     0.038370000000     0.866060000000     0.130425   
C        C      0.728500000000     0.020030000000     0.915160000000     0.130425   
C        C      0.464400000000     0.974930000000     0.859750000000     0.130425   
C        C      0.308900000000     0.336100000000     0.919610000000     0.130425   
C        C      0.384700000000     0.258870000000     0.906740000000     0.130425   
C        C      0.282000000000     0.195860000000     0.914800000000     0.130425   
C        C      0.347700000000     0.124490000000     0.902230000000     0.130425   
C        C      0.519800000000     0.115640000000     0.881160000000     0.130425   
C        C      0.623500000000     0.178950000000     0.873720000000     0.130425   
C        C      0.557500000000     0.249900000000     0.886860000000     0.130425   
C        C      0.575200000000     0.916790000000     0.605020000000     0.130425   
C        C      0.700500000000     0.876300000000     0.642230000000     0.130425   
C        C      0.660900000000     0.868680000000     0.698740000000     0.130425   
C        C      0.773700000000     0.828970000000     0.732450000000     0.130425   
C        C      0.927700000000     0.795890000000     0.710490000000     0.130425   
C        C      0.970700000000     0.806570000000     0.654460000000     0.130425   
C        C      0.858100000000     0.845900000000     0.620880000000     0.130425   
C        C      0.164800000000     0.692830000000     0.717660000000     0.130425   
C        C      0.054100000000     0.542850000000     0.145850000000     0.130425   
C        C      0.141300000000     0.542780000000     0.202750000000     0.130425   
C        C      0.050500000000     0.513900000000     0.247420000000     0.130425   
C        C      0.128200000000     0.511640000000     0.300160000000     0.130425   
C        C      0.298600000000     0.540240000000     0.308860000000     0.130425   
C        C      0.388900000000     0.569570000000     0.263690000000     0.130425   
C        C      0.311900000000     0.570450000000     0.211100000000     0.130425   
C        C      0.396800000000     0.538370000000     0.366060000000     0.130425   
C        C      0.271500000000     0.520030000000     0.415160000000     0.130425   
C        C      0.535600000000     0.474930000000     0.359750000000     0.130425   
C        C      0.691100000000     0.836100000000     0.419610000000     0.130425   
C        C      0.615300000000     0.758870000000     0.406740000000     0.130425   
C        C      0.718000000000     0.695860000000     0.414800000000     0.130425   
C        C      0.652300000000     0.624490000000     0.402230000000     0.130425   
C        C      0.480200000000     0.615640000000     0.381160000000     0.130425   
C        C      0.376500000000     0.678950000000     0.373720000000     0.130425   
C        C      0.442500000000     0.749900000000     0.386860000000     0.130425   
C        C      0.424800000000     0.416790000000     0.105020000000     0.130425   
C        C      0.299500000000     0.376300000000     0.142230000000     0.130425   
C        C      0.339100000000     0.368680000000     0.198740000000     0.130425   
C        C      0.226300000000     0.328970000000     0.232450000000     0.130425   
C        C      0.072300000000     0.295890000000     0.210490000000     0.130425   
C        C      0.029300000000     0.306570000000     0.154460000000     0.130425   
C        C      0.141900000000     0.345900000000     0.120880000000     0.130425   
C        C      0.835200000000     0.192830000000     0.217660000000     0.130425   
C        C      0.054100000000     0.957150000000     0.354150000000     0.130425   
C        C      0.141300000000     0.957220000000     0.297250000000     0.130425   
C        C      0.050500000000     0.986100000000     0.252580000000     0.130425   
C        C      0.128200000000     0.988360000000     0.199840000000     0.130425   
C        C      0.298600000000     0.959760000000     0.191140000000     0.130425   
C        C      0.388900000000     0.930430000000     0.236310000000     0.130425   
C        C      0.311900000000     0.929550000000     0.288900000000     0.130425   
C        C      0.396800000000     0.961630000000     0.133940000000     0.130425   
C        C      0.271500000000     0.979970000000     0.084840000000     0.130425   
C        C      0.535600000000     0.025070000000     0.140250000000     0.130425   
C        C      0.691100000000     0.663900000000     0.080390000000     0.130425   
C        C      0.615300000000     0.741130000000     0.093260000000     0.130425   
C        C      0.718000000000     0.804140000000     0.085200000000     0.130425   
C        C      0.652300000000     0.875510000000     0.097770000000     0.130425   
C        C      0.480200000000     0.884360000000     0.118840000000     0.130425   
C        C      0.376500000000     0.821050000000     0.126280000000     0.130425   
C        C      0.442500000000     0.750100000000     0.113140000000     0.130425   
C        C      0.424800000000     0.083210000000     0.394980000000     0.130425   
C        C      0.299500000000     0.123700000000     0.357770000000     0.130425   
C        C      0.339100000000     0.131320000000     0.301260000000     0.130425   
C        C      0.226300000000     0.171030000000     0.267550000000     0.130425   
C        C      0.072300000000     0.204110000000     0.289510000000     0.130425   
C        C      0.029300000000     0.193430000000     0.345540000000     0.130425   
C        C      0.141900000000     0.154100000000     0.379120000000     0.130425   
C        C      0.835200000000     0.307170000000     0.282340000000     0.130425   
C        C      0.044500000000     0.750000000000     0.750000000000     0.130425   
C        C      0.955500000000     0.250000000000     0.250000000000     0.130425   
O        O      0.101500000000     0.482200000000     0.857040000000    -0.272302   
O        O      0.859200000000     0.432740000000     0.894740000000    -0.272302   
O        O      0.407500000000     0.108860000000     0.590300000000    -0.272302   
O        O      0.153900000000     0.160160000000     0.561920000000    -0.272302   
O        O      0.431400000000     0.560450000000     0.871730000000    -0.272302   
O        O      0.611000000000     0.575320000000     0.945250000000    -0.272302   
O        O      0.174700000000     0.497120000000     0.986210000000    -0.272302   
O        O      0.101500000000     0.017800000000     0.642960000000    -0.272302   
O        O      0.859200000000     0.067260000000     0.605260000000    -0.272302   
O        O      0.407500000000     0.391140000000     0.909700000000    -0.272302   
O        O      0.153900000000     0.339840000000     0.938080000000    -0.272302   
O        O      0.431400000000     0.939550000000     0.628270000000    -0.272302   
O        O      0.611000000000     0.924680000000     0.554750000000    -0.272302   
O        O      0.174700000000     0.002880000000     0.513790000000    -0.272302   
O        O      0.898500000000     0.517800000000     0.142960000000    -0.272302   
O        O      0.140800000000     0.567260000000     0.105260000000    -0.272302   
O        O      0.592500000000     0.891140000000     0.409700000000    -0.272302   
O        O      0.846100000000     0.839840000000     0.438080000000    -0.272302   
O        O      0.568600000000     0.439550000000     0.128270000000    -0.272302   
O        O      0.389000000000     0.424680000000     0.054750000000    -0.272302   
O        O      0.825300000000     0.502880000000     0.013790000000    -0.272302   
O        O      0.898500000000     0.982200000000     0.357040000000    -0.272302   
O        O      0.140800000000     0.932740000000     0.394740000000    -0.272302   
O        O      0.592500000000     0.608860000000     0.090300000000    -0.272302   
O        O      0.846100000000     0.660160000000     0.061920000000    -0.272302   
O        O      0.568600000000     0.060450000000     0.371730000000    -0.272302   
O        O      0.389000000000     0.075320000000     0.445250000000    -0.272302   
O        O      0.825300000000     0.997120000000     0.486210000000    -0.272302   
F        F      0.870200000000     0.435290000000     0.582470000000    -0.432956   
F        F      0.788400000000     0.550980000000     0.587800000000    -0.432956   
F        F      0.646200000000     0.470840000000     0.535010000000    -0.432956   
F        F      0.388500000000     0.541950000000     0.590900000000    -0.432956   
F        F      0.535700000000     0.588560000000     0.661330000000    -0.432956   
F        F      0.331600000000     0.507250000000     0.674510000000    -0.432956   
F        F      0.239200000000     0.854900000000     0.748360000000    -0.432956   
F        F      0.297600000000     0.774800000000     0.810430000000    -0.432956   
F        F      0.070800000000     0.848030000000     0.820810000000    -0.432956   
F        F      0.870200000000     0.064710000000     0.917530000000    -0.432956   
F        F      0.788400000000     0.949020000000     0.912200000000    -0.432956   
F        F      0.646200000000     0.029160000000     0.964990000000    -0.432956   
F        F      0.388500000000     0.958050000000     0.909100000000    -0.432956   
F        F      0.535700000000     0.911440000000     0.838670000000    -0.432956   
F        F      0.331600000000     0.992750000000     0.825490000000    -0.432956   
F        F      0.239200000000     0.645100000000     0.751640000000    -0.432956   
F        F      0.297600000000     0.725200000000     0.689570000000    -0.432956   
F        F      0.070800000000     0.651970000000     0.679190000000    -0.432956   
F        F      0.129800000000     0.564710000000     0.417530000000    -0.432956   
F        F      0.211600000000     0.449020000000     0.412200000000    -0.432956   
F        F      0.353800000000     0.529160000000     0.464990000000    -0.432956   
F        F      0.611500000000     0.458050000000     0.409100000000    -0.432956   
F        F      0.464300000000     0.411440000000     0.338670000000    -0.432956   
F        F      0.668400000000     0.492750000000     0.325490000000    -0.432956   
F        F      0.760800000000     0.145100000000     0.251640000000    -0.432956   
F        F      0.702400000000     0.225200000000     0.189570000000    -0.432956   
F        F      0.929200000000     0.151970000000     0.179190000000    -0.432956   
F        F      0.129800000000     0.935290000000     0.082470000000    -0.432956   
F        F      0.211600000000     0.050980000000     0.087800000000    -0.432956   
F        F      0.353800000000     0.970840000000     0.035010000000    -0.432956   
F        F      0.611500000000     0.041950000000     0.090900000000    -0.432956   
F        F      0.464300000000     0.088560000000     0.161330000000    -0.432956   
F        F      0.668400000000     0.007250000000     0.174510000000    -0.432956   
F        F      0.760800000000     0.354900000000     0.248360000000    -0.432956   
F        F      0.702400000000     0.274800000000     0.310430000000    -0.432956   
F        F      0.929200000000     0.348030000000     0.320810000000    -0.432956   


