data_XOVVIO_original

_audit_creation_method RASPA-1.0
_audit_creation_date 2022-1-29
_audit_author_name 'Felipe Lopes de Oliveira <felipe.lopes.oliveira@ibm.com>'

_cell_length_a    9.924
_cell_length_b    11.738
_cell_length_c    15.203
_cell_angle_alpha 94.77
_cell_angle_beta  98.94
_cell_angle_gamma 112.62
_cell_volume      1594.92

_symmetry_cell_setting          triclinic
_symmetry_space_group_name_Hall 'P 1'
_symmetry_space_group_name_H-M  'P 1'
_symmetry_Int_Tables_number     1

_symmetry_equiv_pos_as_xyz 'x,y,z'

loop_
_atom_site_label
_atom_site_type_symbol
_atom_site_fract_x
_atom_site_fract_y
_atom_site_fract_z
_atom_site_charge
Zn       Zn     0.985440000000     0.067570000000     0.792060000000     0.405711   
Zn       Zn     0.443280000000     0.108600000000     0.568350000000     0.405711   
Zn       Zn     0.113750000000     0.815160000000     0.833460000000     0.405711   
Zn       Zn     0.014560000000     0.932430000000     0.207940000000     0.405711   
Zn       Zn     0.556720000000     0.891400000000     0.431650000000     0.405711   
Zn       Zn     0.886250000000     0.184840000000     0.166540000000     0.405711   
Zn       Zn     0.500000000000     0.000000000000     0.000000000000     0.405711   
H        H      0.769800000000     0.536800000000     0.940100000000     0.096315   
H        H      0.262800000000     0.668700000000     0.590500000000     0.096315   
H        H      0.681800000000     0.965100000000     0.855500000000     0.096315   
H        H      0.063400000000     0.177200000000     0.009200000000     0.096315   
H        H      0.710700000000     0.152800000000     0.731200000000     0.096315   
H        H      0.827600000000     0.932500000000     0.588700000000     0.096315   
H        H      0.173100000000     0.137800000000     0.639400000000     0.096315   
H        H      0.355600000000     0.911900000000     0.708200000000     0.096315   
H        H      0.201600000000     0.490500000000     0.832700000000     0.096315   
H        H      0.534000000000     0.379200000000     0.898600000000     0.096315   
H        H      0.625800000000     0.745800000000     0.913000000000     0.096315   
H        H      0.699600000000     0.502600000000     0.675000000000     0.096315   
H        H      0.295600000000     0.482100000000     0.565500000000     0.096315   
H        H      0.606200000000     0.803900000000     0.708100000000     0.096315   
H        H      0.230200000000     0.463200000000     0.059900000000     0.096315   
H        H      0.737200000000     0.331300000000     0.409500000000     0.096315   
H        H      0.318200000000     0.034900000000     0.144500000000     0.096315   
H        H      0.936600000000     0.822800000000     0.990800000000     0.096315   
H        H      0.289300000000     0.847200000000     0.268800000000     0.096315   
H        H      0.172400000000     0.067500000000     0.411300000000     0.096315   
H        H      0.826900000000     0.862200000000     0.360600000000     0.096315   
H        H      0.644400000000     0.088100000000     0.291800000000     0.096315   
H        H      0.798400000000     0.509500000000     0.167300000000     0.096315   
H        H      0.466000000000     0.620800000000     0.101400000000     0.096315   
H        H      0.374200000000     0.254200000000     0.087000000000     0.096315   
H        H      0.300400000000     0.497400000000     0.325000000000     0.096315   
H        H      0.704400000000     0.517900000000     0.434500000000     0.096315   
H        H      0.393800000000     0.196100000000     0.291900000000     0.096315   
C        C      0.754400000000     0.014700000000     0.905300000000     0.0659396  
C        C      0.961900000000     0.129600000000     0.988500000000     0.0659396  
C        C      0.712900000000     0.097600000000     0.684400000000     0.0659396  
C        C      0.775800000000     0.978200000000     0.607500000000     0.0659396  
C        C      0.194200000000     0.077000000000     0.666800000000     0.0659396  
C        C      0.293300000000     0.954300000000     0.703800000000     0.0659396  
C        C      0.348900000000     0.734700000000     0.866300000000     0.0659396  
C        C      0.238900000000     0.283000000000     0.852500000000     0.0659396  
C        C      0.404900000000     0.634300000000     0.873400000000     0.0659396  
C        C      0.302300000000     0.509700000000     0.853400000000     0.0659396  
C        C      0.350600000000     0.414600000000     0.864400000000     0.0659396  
C        C      0.501300000000     0.442900000000     0.891800000000     0.0659396  
C        C      0.603100000000     0.566500000000     0.909100000000     0.0659396  
C        C      0.556800000000     0.663100000000     0.900700000000     0.0659396  
C        C      0.828500000000     0.740500000000     0.755200000000     0.0659396  
C        C      0.441600000000     0.336000000000     0.581800000000     0.0659396  
C        C      0.676900000000     0.665500000000     0.699300000000     0.0659396  
C        C      0.632900000000     0.540500000000     0.664600000000     0.0659396  
C        C      0.491400000000     0.472600000000     0.615100000000     0.0659396  
C        C      0.391400000000     0.528200000000     0.599100000000     0.0659396  
C        C      0.435100000000     0.652300000000     0.633200000000     0.0659396  
C        C      0.577800000000     0.720600000000     0.684200000000     0.0659396  
C        C      0.245600000000     0.985300000000     0.094700000000     0.0659396  
C        C      0.038100000000     0.870400000000     0.011500000000     0.0659396  
C        C      0.287100000000     0.902400000000     0.315600000000     0.0659396  
C        C      0.224200000000     0.021800000000     0.392500000000     0.0659396  
C        C      0.805800000000     0.923000000000     0.333200000000     0.0659396  
C        C      0.706700000000     0.045700000000     0.296200000000     0.0659396  
C        C      0.651100000000     0.265300000000     0.133700000000     0.0659396  
C        C      0.761100000000     0.717000000000     0.147500000000     0.0659396  
C        C      0.595100000000     0.365700000000     0.126600000000     0.0659396  
C        C      0.697700000000     0.490300000000     0.146600000000     0.0659396  
C        C      0.649400000000     0.585400000000     0.135600000000     0.0659396  
C        C      0.498700000000     0.557100000000     0.108200000000     0.0659396  
C        C      0.396900000000     0.433500000000     0.090900000000     0.0659396  
C        C      0.443200000000     0.336900000000     0.099300000000     0.0659396  
C        C      0.171500000000     0.259500000000     0.244800000000     0.0659396  
C        C      0.558400000000     0.664000000000     0.418200000000     0.0659396  
C        C      0.323100000000     0.334500000000     0.300700000000     0.0659396  
C        C      0.367100000000     0.459500000000     0.335400000000     0.0659396  
C        C      0.508600000000     0.527400000000     0.384900000000     0.0659396  
C        C      0.608600000000     0.471800000000     0.400900000000     0.0659396  
C        C      0.564900000000     0.347700000000     0.366800000000     0.0659396  
C        C      0.422200000000     0.279400000000     0.315800000000     0.0659396  
N        N      0.723800000000     0.039900000000     0.984100000000    -0.140179   
N        N      0.900200000000     0.067500000000     0.903700000000    -0.140179   
N        N      0.860200000000     0.114500000000     0.038400000000    -0.140179   
N        N      0.816400000000     0.050100000000     0.688000000000    -0.140179   
N        N      0.614200000000     0.057500000000     0.607500000000    -0.140179   
N        N      0.656400000000     0.978400000000     0.557900000000    -0.140179   
N        N      0.121300000000     0.017500000000     0.725700000000    -0.140179   
N        N      0.185600000000     0.935600000000     0.749900000000    -0.140179   
N        N      0.302500000000     0.040900000000     0.650100000000    -0.140179   
N        N      0.276200000000     0.960100000000     0.015900000000    -0.140179   
N        N      0.099800000000     0.932500000000     0.096300000000    -0.140179   
N        N      0.139800000000     0.885500000000     0.961600000000    -0.140179   
N        N      0.183600000000     0.949900000000     0.312000000000    -0.140179   
N        N      0.385800000000     0.942500000000     0.392500000000    -0.140179   
N        N      0.343600000000     0.021600000000     0.442100000000    -0.140179   
N        N      0.878700000000     0.982500000000     0.274300000000    -0.140179   
N        N      0.814400000000     0.064400000000     0.250100000000    -0.140179   
N        N      0.697500000000     0.959100000000     0.349900000000    -0.140179   
O        O      0.434200000000     0.848400000000     0.888600000000    -0.295745   
O        O      0.208600000000     0.697500000000     0.836800000000    -0.295745   
O        O      0.108000000000     0.255200000000     0.805400000000    -0.295745   
O        O      0.271200000000     0.201700000000     0.888600000000    -0.295745   
O        O      0.753600000000     0.599800000000     0.936200000000    -0.295745   
O        O      0.864300000000     0.848700000000     0.790800000000    -0.295745   
O        O      0.921000000000     0.686900000000     0.764700000000    -0.295745   
O        O      0.539900000000     0.289300000000     0.598500000000    -0.295745   
O        O      0.311700000000     0.270800000000     0.542000000000    -0.295745   
O        O      0.344400000000     0.715800000000     0.621000000000    -0.295745   
O        O      0.565800000000     0.151600000000     0.111400000000    -0.295745   
O        O      0.791400000000     0.302500000000     0.163200000000    -0.295745   
O        O      0.892000000000     0.744800000000     0.194600000000    -0.295745   
O        O      0.728800000000     0.798300000000     0.111400000000    -0.295745   
O        O      0.246400000000     0.400200000000     0.063800000000    -0.295745   
O        O      0.135700000000     0.151300000000     0.209200000000    -0.295745   
O        O      0.079000000000     0.313100000000     0.235300000000    -0.295745   
O        O      0.460100000000     0.710700000000     0.401500000000    -0.295745   
O        O      0.688300000000     0.729200000000     0.458000000000    -0.295745   
O        O      0.655600000000     0.284200000000     0.379000000000    -0.295745   


