data_XUGSEY_original

_audit_creation_method RASPA-1.0
_audit_creation_date 2022-1-29
_audit_author_name 'Felipe Lopes de Oliveira <felipe.lopes.oliveira@ibm.com>'

_cell_length_a    11.569
_cell_length_b    15.447
_cell_length_c    21.19
_cell_angle_alpha 76.794
_cell_angle_beta  79.025
_cell_angle_gamma 89.615
_cell_volume      3616.54

_symmetry_cell_setting          triclinic
_symmetry_space_group_name_Hall 'P 1'
_symmetry_space_group_name_H-M  'P 1'
_symmetry_Int_Tables_number     1

_symmetry_equiv_pos_as_xyz 'x,y,z'

loop_
_atom_site_label
_atom_site_type_symbol
_atom_site_fract_x
_atom_site_fract_y
_atom_site_fract_z
_atom_site_charge
Zn       Zn     0.964850000000     0.479130000000     0.572660000000     0.445556   
Zn       Zn     0.035150000000     0.520870000000     0.427340000000     0.445556   
Zn       Zn     0.500000000000     0.500000000000     0.000000000000     0.445556   
H        H      0.311200000000     0.348300000000     0.437700000000     0.0712721  
H        H      0.434800000000     0.229400000000     0.430600000000     0.0712721  
H        H      0.265100000000     0.097900000000     0.610900000000     0.0712721  
H        H      0.151700000000     0.217800000000     0.621300000000     0.0712721  
H        H      0.296700000000     0.986900000000     0.534000000000     0.0712721  
H        H      0.555100000000     0.176000000000     0.582600000000     0.0712721  
H        H      0.676400000000     0.295000000000     0.584400000000     0.0712721  
H        H      0.832400000000     0.305400000000     0.395500000000     0.0712721  
H        H      0.718800000000     0.180600000000     0.396300000000     0.0712721  
H        H      0.722900000000     0.460700000000     0.645400000000     0.0712721  
H        H      0.614400000000     0.460400000000     0.744800000000     0.0712721  
H        H      0.910300000000     0.523000000000     0.800500000000     0.0712721  
H        H      0.005900000000     0.524100000000     0.694800000000     0.0712721  
H        H      0.697600000000     0.316900000000     0.838400000000     0.0712721  
H        H      0.590900000000     0.207100000000     0.931500000000     0.0712721  
H        H      0.247600000000     0.232200000000     0.137400000000     0.0712721  
H        H      0.258700000000     0.331500000000     0.221300000000     0.0712721  
H        H      0.688800000000     0.651700000000     0.562300000000     0.0712721  
H        H      0.565200000000     0.770600000000     0.569400000000     0.0712721  
H        H      0.734900000000     0.902100000000     0.389100000000     0.0712721  
H        H      0.848300000000     0.782200000000     0.378700000000     0.0712721  
H        H      0.703300000000     0.013100000000     0.466000000000     0.0712721  
H        H      0.444900000000     0.824000000000     0.417400000000     0.0712721  
H        H      0.323600000000     0.705000000000     0.415600000000     0.0712721  
H        H      0.167600000000     0.694600000000     0.604500000000     0.0712721  
H        H      0.281200000000     0.819400000000     0.603700000000     0.0712721  
H        H      0.277100000000     0.539300000000     0.354600000000     0.0712721  
H        H      0.385600000000     0.539600000000     0.255200000000     0.0712721  
H        H      0.089700000000     0.477000000000     0.199500000000     0.0712721  
H        H      0.994100000000     0.475900000000     0.305200000000     0.0712721  
H        H      0.302400000000     0.683100000000     0.161600000000     0.0712721  
H        H      0.409100000000     0.792900000000     0.068500000000     0.0712721  
H        H      0.752400000000     0.767800000000     0.862600000000     0.0712721  
H        H      0.741300000000     0.668500000000     0.778700000000     0.0712721  
C        C      0.134500000000     0.369400000000     0.530600000000     0.039376   
C        C      0.218200000000     0.294800000000     0.528900000000     0.039376   
C        C      0.302700000000     0.297400000000     0.473500000000     0.039376   
C        C      0.376000000000     0.226600000000     0.469000000000     0.039376   
C        C      0.363100000000     0.151800000000     0.520600000000     0.039376   
C        C      0.276400000000     0.149800000000     0.576000000000     0.039376   
C        C      0.207300000000     0.219600000000     0.581700000000     0.039376   
C        C      0.435300000000     0.074000000000     0.512800000000     0.039376   
C        C      0.379800000000     0.992600000000     0.519700000000     0.039376   
C        C      0.560000000000     0.081600000000     0.493300000000     0.039376   
C        C      0.627000000000     0.164300000000     0.490300000000     0.039376   
C        C      0.613900000000     0.200500000000     0.544900000000     0.039376   
C        C      0.684900000000     0.272300000000     0.545800000000     0.039376   
C        C      0.767700000000     0.310500000000     0.490600000000     0.039376   
C        C      0.778200000000     0.277600000000     0.434400000000     0.039376   
C        C      0.709300000000     0.204000000000     0.434700000000     0.039376   
C        C      0.848500000000     0.384600000000     0.493000000000     0.039376   
C        C      0.762000000000     0.471000000000     0.678700000000     0.039376   
C        C      0.697000000000     0.472200000000     0.736900000000     0.039376   
C        C      0.747800000000     0.490100000000     0.785800000000     0.039376   
C        C      0.868400000000     0.509000000000     0.769500000000     0.039376   
C        C      0.924700000000     0.506600000000     0.706900000000     0.039376   
C        C      0.676400000000     0.492000000000     0.853500000000     0.039376   
C        C      0.630700000000     0.416100000000     0.892000000000     0.039376   
C        C      0.651700000000     0.329500000000     0.877200000000     0.039376   
C        C      0.594000000000     0.272600000000     0.928500000000     0.039376   
C        C      0.485000000000     0.324500000000     0.962300000000     0.039376   
C        C      0.403000000000     0.287400000000     0.016600000000     0.039376   
C        C      0.330400000000     0.202800000000     0.015000000000     0.039376   
C        C      0.228700000000     0.190200000000     0.991800000000     0.039376   
C        C      0.187300000000     0.104600000000     0.995400000000     0.039376   
C        C      0.247700000000     0.031500000000     0.022200000000     0.039376   
C        C      0.349400000000     0.044100000000     0.045500000000     0.039376   
C        C      0.390800000000     0.129700000000     0.041800000000     0.039376   
C        C      0.401000000000     0.322300000000     0.080300000000     0.039376   
C        C      0.296000000000     0.283500000000     0.133300000000     0.039376   
C        C      0.287000000000     0.343000000000     0.175000000000     0.039376   
C        C      0.666100000000     0.573400000000     0.870100000000     0.039376   
C        C      0.865500000000     0.630600000000     0.469400000000     0.039376   
C        C      0.781800000000     0.705200000000     0.471100000000     0.039376   
C        C      0.697300000000     0.702600000000     0.526500000000     0.039376   
C        C      0.624000000000     0.773400000000     0.531000000000     0.039376   
C        C      0.636900000000     0.848200000000     0.479400000000     0.039376   
C        C      0.723600000000     0.850200000000     0.424000000000     0.039376   
C        C      0.792700000000     0.780400000000     0.418300000000     0.039376   
C        C      0.564700000000     0.926000000000     0.487200000000     0.039376   
C        C      0.620200000000     0.007400000000     0.480300000000     0.039376   
C        C      0.440000000000     0.918400000000     0.506700000000     0.039376   
C        C      0.373000000000     0.835700000000     0.509700000000     0.039376   
C        C      0.386100000000     0.799500000000     0.455100000000     0.039376   
C        C      0.315100000000     0.727700000000     0.454200000000     0.039376   
C        C      0.232300000000     0.689500000000     0.509400000000     0.039376   
C        C      0.221800000000     0.722400000000     0.565600000000     0.039376   
C        C      0.290700000000     0.796000000000     0.565300000000     0.039376   
C        C      0.151500000000     0.615400000000     0.507000000000     0.039376   
C        C      0.238000000000     0.529000000000     0.321300000000     0.039376   
C        C      0.303000000000     0.527800000000     0.263100000000     0.039376   
C        C      0.252200000000     0.509900000000     0.214200000000     0.039376   
C        C      0.131600000000     0.491000000000     0.230500000000     0.039376   
C        C      0.075300000000     0.493400000000     0.293100000000     0.039376   
C        C      0.323600000000     0.508000000000     0.146500000000     0.039376   
C        C      0.369300000000     0.583900000000     0.108000000000     0.039376   
C        C      0.348300000000     0.670500000000     0.122800000000     0.039376   
C        C      0.406000000000     0.727400000000     0.071500000000     0.039376   
C        C      0.515000000000     0.675500000000     0.037700000000     0.039376   
C        C      0.597000000000     0.712600000000     0.983400000000     0.039376   
C        C      0.669600000000     0.797200000000     0.985000000000     0.039376   
C        C      0.771300000000     0.809800000000     0.008200000000     0.039376   
C        C      0.812700000000     0.895400000000     0.004600000000     0.039376   
C        C      0.752300000000     0.968500000000     0.977800000000     0.039376   
C        C      0.650600000000     0.955900000000     0.954500000000     0.039376   
C        C      0.609200000000     0.870300000000     0.958200000000     0.039376   
C        C      0.599000000000     0.677700000000     0.919700000000     0.039376   
C        C      0.704000000000     0.716500000000     0.866700000000     0.039376   
C        C      0.713000000000     0.657000000000     0.825000000000     0.039376   
C        C      0.333900000000     0.426600000000     0.129900000000     0.039376   
N        N      0.877600000000     0.483200000000     0.663700000000    -0.173975   
N        N      0.554800000000     0.404500000000     0.952800000000    -0.173975   
N        N      0.403400000000     0.409700000000     0.073800000000    -0.173975   
N        N      0.122400000000     0.516800000000     0.336300000000    -0.173975   
N        N      0.445200000000     0.595500000000     0.047200000000    -0.173975   
N        N      0.596600000000     0.590300000000     0.926200000000    -0.173975   
O        O      0.078000000000     0.377900000000     0.584800000000    -0.290595   
O        O      0.126800000000     0.419100000000     0.475300000000    -0.290595   
O        O      0.905100000000     0.428400000000     0.438590000000    -0.290595   
O        O      0.854300000000     0.396200000000     0.548230000000    -0.290595   
O        O      0.922000000000     0.622100000000     0.415200000000    -0.290595   
O        O      0.873200000000     0.580900000000     0.524700000000    -0.290595   
O        O      0.094900000000     0.571600000000     0.561410000000    -0.290595   
O        O      0.145700000000     0.603800000000     0.451770000000    -0.290595   
F        F      0.169400000000     0.261900000000     0.965400000000    -0.338388   
F        F      0.084300000000     0.091800000000     0.971900000000    -0.338388   
F        F      0.206200000000     0.945600000000     0.025900000000    -0.338388   
F        F      0.410100000000     0.970600000000     0.072400000000    -0.338388   
F        F      0.493100000000     0.142300000000     0.065200000000    -0.338388   
F        F      0.830600000000     0.738100000000     0.034600000000    -0.338388   
F        F      0.915700000000     0.908200000000     0.028100000000    -0.338388   
F        F      0.793800000000     0.054400000000     0.974100000000    -0.338388   
F        F      0.589900000000     0.029400000000     0.927600000000    -0.338388   
F        F      0.506900000000     0.857700000000     0.934800000000    -0.338388   


