data_XUNJEW_original

_audit_creation_method RASPA-1.0
_audit_creation_date 2022-1-29
_audit_author_name 'Felipe Lopes de Oliveira <felipe.lopes.oliveira@ibm.com>'

_cell_length_a    17.9244
_cell_length_b    17.9244
_cell_length_c    18.4454
_cell_angle_alpha 90
_cell_angle_beta  90
_cell_angle_gamma 120
_cell_volume      5132.25

_symmetry_cell_setting          triclinic
_symmetry_space_group_name_Hall 'P 1'
_symmetry_space_group_name_H-M  'P 1'
_symmetry_Int_Tables_number     1

_symmetry_equiv_pos_as_xyz 'x,y,z'

loop_
_atom_site_label
_atom_site_type_symbol
_atom_site_fract_x
_atom_site_fract_y
_atom_site_fract_z
_atom_site_charge
Zn       Zn     0.282530000000     0.289580000000     0.043710000000     0.391535   
Zn       Zn     0.710420000000     0.992950000000     0.043710000000     0.391535   
Zn       Zn     0.007050000000     0.717470000000     0.043710000000     0.391535   
Zn       Zn     0.949197000000     0.622913000000     0.377043000000     0.391535   
Zn       Zn     0.377087000000     0.326283000000     0.377043000000     0.391535   
Zn       Zn     0.673717000000     0.050803000000     0.377043000000     0.391535   
Zn       Zn     0.615863000000     0.956247000000     0.710377000000     0.391535   
Zn       Zn     0.043753000000     0.659617000000     0.710377000000     0.391535   
Zn       Zn     0.340383000000     0.384137000000     0.710377000000     0.391535   
Zn       Zn     0.717470000000     0.710420000000     0.956290000000     0.391535   
Zn       Zn     0.289580000000     0.007050000000     0.956290000000     0.391535   
Zn       Zn     0.992950000000     0.282530000000     0.956290000000     0.391535   
Zn       Zn     0.050803000000     0.377087000000     0.622957000000     0.391535   
Zn       Zn     0.622913000000     0.673717000000     0.622957000000     0.391535   
Zn       Zn     0.326283000000     0.949197000000     0.622957000000     0.391535   
Zn       Zn     0.384137000000     0.043753000000     0.289623000000     0.391535   
Zn       Zn     0.956247000000     0.340383000000     0.289623000000     0.391535   
Zn       Zn     0.659617000000     0.615863000000     0.289623000000     0.391535   
H        H      0.261100000000     0.435600000000     0.939100000000     0.234322   
H        H      0.564400000000     0.825500000000     0.939100000000     0.234322   
H        H      0.174500000000     0.738900000000     0.939100000000     0.234322   
H        H      0.927767000000     0.768933000000     0.272433000000     0.234322   
H        H      0.231067000000     0.158833000000     0.272433000000     0.234322   
H        H      0.841167000000     0.072233000000     0.272433000000     0.234322   
H        H      0.594433000000     0.102267000000     0.605767000000     0.234322   
H        H      0.897733000000     0.492167000000     0.605767000000     0.234322   
H        H      0.507833000000     0.405567000000     0.605767000000     0.234322   
H        H      0.738900000000     0.564400000000     0.060900000000     0.234322   
H        H      0.435600000000     0.174500000000     0.060900000000     0.234322   
H        H      0.825500000000     0.261100000000     0.060900000000     0.234322   
H        H      0.072233000000     0.231067000000     0.727567000000     0.234322   
H        H      0.768933000000     0.841167000000     0.727567000000     0.234322   
H        H      0.158833000000     0.927767000000     0.727567000000     0.234322   
H        H      0.405567000000     0.897733000000     0.394233000000     0.234322   
H        H      0.102267000000     0.507833000000     0.394233000000     0.234322   
H        H      0.492167000000     0.594433000000     0.394233000000     0.234322   
H        H      0.226700000000     0.426200000000     0.859600000000     0.234322   
H        H      0.573800000000     0.800500000000     0.859600000000     0.234322   
H        H      0.199500000000     0.773300000000     0.859600000000     0.234322   
H        H      0.893367000000     0.759533000000     0.192933000000     0.234322   
H        H      0.240467000000     0.133833000000     0.192933000000     0.234322   
H        H      0.866167000000     0.106633000000     0.192933000000     0.234322   
H        H      0.560033000000     0.092867000000     0.526267000000     0.234322   
H        H      0.907133000000     0.467167000000     0.526267000000     0.234322   
H        H      0.532833000000     0.439967000000     0.526267000000     0.234322   
H        H      0.773300000000     0.573800000000     0.140400000000     0.234322   
H        H      0.426200000000     0.199500000000     0.140400000000     0.234322   
H        H      0.800500000000     0.226700000000     0.140400000000     0.234322   
H        H      0.106633000000     0.240467000000     0.807067000000     0.234322   
H        H      0.759533000000     0.866167000000     0.807067000000     0.234322   
H        H      0.133833000000     0.893367000000     0.807067000000     0.234322   
H        H      0.439967000000     0.907133000000     0.473733000000     0.234322   
H        H      0.092867000000     0.532833000000     0.473733000000     0.234322   
H        H      0.467167000000     0.560033000000     0.473733000000     0.234322   
H        H      0.325400000000     0.483800000000     0.875500000000     0.234322   
H        H      0.516200000000     0.841600000000     0.875500000000     0.234322   
H        H      0.158400000000     0.674600000000     0.875500000000     0.234322   
H        H      0.992067000000     0.817133000000     0.208833000000     0.234322   
H        H      0.182867000000     0.174933000000     0.208833000000     0.234322   
H        H      0.825067000000     0.007933000000     0.208833000000     0.234322   
H        H      0.658733000000     0.150467000000     0.542167000000     0.234322   
H        H      0.849533000000     0.508267000000     0.542167000000     0.234322   
H        H      0.491733000000     0.341267000000     0.542167000000     0.234322   
H        H      0.674600000000     0.516200000000     0.124500000000     0.234322   
H        H      0.483800000000     0.158400000000     0.124500000000     0.234322   
H        H      0.841600000000     0.325400000000     0.124500000000     0.234322   
H        H      0.007933000000     0.182867000000     0.791167000000     0.234322   
H        H      0.817133000000     0.825067000000     0.791167000000     0.234322   
H        H      0.174933000000     0.992067000000     0.791167000000     0.234322   
H        H      0.341267000000     0.849533000000     0.457833000000     0.234322   
H        H      0.150467000000     0.491733000000     0.457833000000     0.234322   
H        H      0.508267000000     0.658733000000     0.457833000000     0.234322   
H        H      0.318000000000     0.128000000000     0.810200000000     0.234322   
H        H      0.872000000000     0.190000000000     0.810200000000     0.234322   
H        H      0.810000000000     0.682000000000     0.810200000000     0.234322   
H        H      0.984667000000     0.461333000000     0.143533000000     0.234322   
H        H      0.538667000000     0.523333000000     0.143533000000     0.234322   
H        H      0.476667000000     0.015333000000     0.143533000000     0.234322   
H        H      0.651333000000     0.794667000000     0.476867000000     0.234322   
H        H      0.205333000000     0.856667000000     0.476867000000     0.234322   
H        H      0.143333000000     0.348667000000     0.476867000000     0.234322   
H        H      0.682000000000     0.872000000000     0.189800000000     0.234322   
H        H      0.128000000000     0.810000000000     0.189800000000     0.234322   
H        H      0.190000000000     0.318000000000     0.189800000000     0.234322   
H        H      0.015333000000     0.538667000000     0.856467000000     0.234322   
H        H      0.461333000000     0.476667000000     0.856467000000     0.234322   
H        H      0.523333000000     0.984667000000     0.856467000000     0.234322   
H        H      0.348667000000     0.205333000000     0.523133000000     0.234322   
H        H      0.794667000000     0.143333000000     0.523133000000     0.234322   
H        H      0.856667000000     0.651333000000     0.523133000000     0.234322   
H        H      0.330000000000     0.124000000000     0.733500000000     0.234322   
H        H      0.876000000000     0.206000000000     0.733500000000     0.234322   
H        H      0.794000000000     0.670000000000     0.733500000000     0.234322   
H        H      0.996667000000     0.457333000000     0.066833000000     0.234322   
H        H      0.542667000000     0.539333000000     0.066833000000     0.234322   
H        H      0.460667000000     0.003333000000     0.066833000000     0.234322   
H        H      0.663333000000     0.790667000000     0.400167000000     0.234322   
H        H      0.209333000000     0.872667000000     0.400167000000     0.234322   
H        H      0.127333000000     0.336667000000     0.400167000000     0.234322   
H        H      0.670000000000     0.876000000000     0.266500000000     0.234322   
H        H      0.124000000000     0.794000000000     0.266500000000     0.234322   
H        H      0.206000000000     0.330000000000     0.266500000000     0.234322   
H        H      0.003333000000     0.542667000000     0.933167000000     0.234322   
H        H      0.457333000000     0.460667000000     0.933167000000     0.234322   
H        H      0.539333000000     0.996667000000     0.933167000000     0.234322   
H        H      0.336667000000     0.209333000000     0.599833000000     0.234322   
H        H      0.790667000000     0.127333000000     0.599833000000     0.234322   
H        H      0.872667000000     0.663333000000     0.599833000000     0.234322   
H        H      0.261000000000     0.136900000000     0.036000000000     0.234322   
H        H      0.863100000000     0.124100000000     0.036000000000     0.234322   
H        H      0.875900000000     0.739000000000     0.036000000000     0.234322   
H        H      0.927667000000     0.470233000000     0.369333000000     0.234322   
H        H      0.529767000000     0.457433000000     0.369333000000     0.234322   
H        H      0.542567000000     0.072333000000     0.369333000000     0.234322   
H        H      0.594333000000     0.803567000000     0.702667000000     0.234322   
H        H      0.196433000000     0.790767000000     0.702667000000     0.234322   
H        H      0.209233000000     0.405667000000     0.702667000000     0.234322   
H        H      0.739000000000     0.863100000000     0.964000000000     0.234322   
H        H      0.136900000000     0.875900000000     0.964000000000     0.234322   
H        H      0.124100000000     0.261000000000     0.964000000000     0.234322   
H        H      0.072333000000     0.529767000000     0.630667000000     0.234322   
H        H      0.470233000000     0.542567000000     0.630667000000     0.234322   
H        H      0.457433000000     0.927667000000     0.630667000000     0.234322   
H        H      0.405667000000     0.196433000000     0.297333000000     0.234322   
H        H      0.803567000000     0.209233000000     0.297333000000     0.234322   
H        H      0.790767000000     0.594333000000     0.297333000000     0.234322   
C        C      0.285120000000     0.356530000000     0.877830000000    -0.0156522  
C        C      0.643470000000     0.928590000000     0.877830000000    -0.0156522  
C        C      0.071410000000     0.714880000000     0.877830000000    -0.0156522  
C        C      0.951787000000     0.689863000000     0.211163000000    -0.0156522  
C        C      0.310137000000     0.261923000000     0.211163000000    -0.0156522  
C        C      0.738077000000     0.048213000000     0.211163000000    -0.0156522  
C        C      0.618453000000     0.023197000000     0.544497000000    -0.0156522  
C        C      0.976803000000     0.595257000000     0.544497000000    -0.0156522  
C        C      0.404743000000     0.381547000000     0.544497000000    -0.0156522  
C        C      0.714880000000     0.643470000000     0.122170000000    -0.0156522  
C        C      0.356530000000     0.071410000000     0.122170000000    -0.0156522  
C        C      0.928590000000     0.285120000000     0.122170000000    -0.0156522  
C        C      0.048213000000     0.310137000000     0.788837000000    -0.0156522  
C        C      0.689863000000     0.738077000000     0.788837000000    -0.0156522  
C        C      0.261923000000     0.951787000000     0.788837000000    -0.0156522  
C        C      0.381547000000     0.976803000000     0.455503000000    -0.0156522  
C        C      0.023197000000     0.404743000000     0.455503000000    -0.0156522  
C        C      0.595257000000     0.618453000000     0.455503000000    -0.0156522  
C        C      0.273600000000     0.432300000000     0.888990000000    -0.0156522  
C        C      0.567700000000     0.841300000000     0.888990000000    -0.0156522  
C        C      0.158700000000     0.726400000000     0.888990000000    -0.0156522  
C        C      0.940267000000     0.765633000000     0.222323000000    -0.0156522  
C        C      0.234367000000     0.174633000000     0.222323000000    -0.0156522  
C        C      0.825367000000     0.059733000000     0.222323000000    -0.0156522  
C        C      0.606933000000     0.098967000000     0.555657000000    -0.0156522  
C        C      0.901033000000     0.507967000000     0.555657000000    -0.0156522  
C        C      0.492033000000     0.393067000000     0.555657000000    -0.0156522  
C        C      0.726400000000     0.567700000000     0.111010000000    -0.0156522  
C        C      0.432300000000     0.158700000000     0.111010000000    -0.0156522  
C        C      0.841300000000     0.273600000000     0.111010000000    -0.0156522  
C        C      0.059733000000     0.234367000000     0.777677000000    -0.0156522  
C        C      0.765633000000     0.825367000000     0.777677000000    -0.0156522  
C        C      0.174633000000     0.940267000000     0.777677000000    -0.0156522  
C        C      0.393067000000     0.901033000000     0.444343000000    -0.0156522  
C        C      0.098967000000     0.492033000000     0.444343000000    -0.0156522  
C        C      0.507967000000     0.606933000000     0.444343000000    -0.0156522  
C        C      0.325600000000     0.224100000000     0.762070000000    -0.0156522  
C        C      0.775900000000     0.101500000000     0.762070000000    -0.0156522  
C        C      0.898500000000     0.674400000000     0.762070000000    -0.0156522  
C        C      0.992267000000     0.557433000000     0.095403000000    -0.0156522  
C        C      0.442567000000     0.434833000000     0.095403000000    -0.0156522  
C        C      0.565167000000     0.007733000000     0.095403000000    -0.0156522  
C        C      0.658933000000     0.890767000000     0.428737000000    -0.0156522  
C        C      0.109233000000     0.768167000000     0.428737000000    -0.0156522  
C        C      0.231833000000     0.341067000000     0.428737000000    -0.0156522  
C        C      0.674400000000     0.775900000000     0.237930000000    -0.0156522  
C        C      0.224100000000     0.898500000000     0.237930000000    -0.0156522  
C        C      0.101500000000     0.325600000000     0.237930000000    -0.0156522  
C        C      0.007733000000     0.442567000000     0.904597000000    -0.0156522  
C        C      0.557433000000     0.565167000000     0.904597000000    -0.0156522  
C        C      0.434833000000     0.992267000000     0.904597000000    -0.0156522  
C        C      0.341067000000     0.109233000000     0.571263000000    -0.0156522  
C        C      0.890767000000     0.231833000000     0.571263000000    -0.0156522  
C        C      0.768167000000     0.658933000000     0.571263000000    -0.0156522  
C        C      0.306310000000     0.261160000000     0.825850000000    -0.0156522  
C        C      0.738840000000     0.045150000000     0.825850000000    -0.0156522  
C        C      0.954850000000     0.693690000000     0.825850000000    -0.0156522  
C        C      0.972977000000     0.594493000000     0.159183000000    -0.0156522  
C        C      0.405507000000     0.378483000000     0.159183000000    -0.0156522  
C        C      0.621517000000     0.027023000000     0.159183000000    -0.0156522  
C        C      0.639643000000     0.927827000000     0.492517000000    -0.0156522  
C        C      0.072173000000     0.711817000000     0.492517000000    -0.0156522  
C        C      0.288183000000     0.360357000000     0.492517000000    -0.0156522  
C        C      0.693690000000     0.738840000000     0.174150000000    -0.0156522  
C        C      0.261160000000     0.954850000000     0.174150000000    -0.0156522  
C        C      0.045150000000     0.306310000000     0.174150000000    -0.0156522  
C        C      0.027023000000     0.405507000000     0.840817000000    -0.0156522  
C        C      0.594493000000     0.621517000000     0.840817000000    -0.0156522  
C        C      0.378483000000     0.972977000000     0.840817000000    -0.0156522  
C        C      0.360357000000     0.072173000000     0.507483000000    -0.0156522  
C        C      0.927827000000     0.288183000000     0.507483000000    -0.0156522  
C        C      0.711817000000     0.639643000000     0.507483000000    -0.0156522  
C        C      0.289390000000     0.239910000000     0.898290000000    -0.0156522  
C        C      0.760090000000     0.049480000000     0.898290000000    -0.0156522  
C        C      0.950520000000     0.710610000000     0.898290000000    -0.0156522  
C        C      0.956057000000     0.573243000000     0.231623000000    -0.0156522  
C        C      0.426757000000     0.382813000000     0.231623000000    -0.0156522  
C        C      0.617187000000     0.043943000000     0.231623000000    -0.0156522  
C        C      0.622723000000     0.906577000000     0.564957000000    -0.0156522  
C        C      0.093423000000     0.716147000000     0.564957000000    -0.0156522  
C        C      0.283853000000     0.377277000000     0.564957000000    -0.0156522  
C        C      0.710610000000     0.760090000000     0.101710000000    -0.0156522  
C        C      0.239910000000     0.950520000000     0.101710000000    -0.0156522  
C        C      0.049480000000     0.289390000000     0.101710000000    -0.0156522  
C        C      0.043943000000     0.426757000000     0.768377000000    -0.0156522  
C        C      0.573243000000     0.617187000000     0.768377000000    -0.0156522  
C        C      0.382813000000     0.956057000000     0.768377000000    -0.0156522  
C        C      0.377277000000     0.093423000000     0.435043000000    -0.0156522  
C        C      0.906577000000     0.283853000000     0.435043000000    -0.0156522  
C        C      0.716147000000     0.622723000000     0.435043000000    -0.0156522  
C        C      0.284900000000     0.170400000000     0.944560000000    -0.0156522  
C        C      0.829600000000     0.114500000000     0.944560000000    -0.0156522  
C        C      0.885500000000     0.715100000000     0.944560000000    -0.0156522  
C        C      0.951567000000     0.503733000000     0.277893000000    -0.0156522  
C        C      0.496267000000     0.447833000000     0.277893000000    -0.0156522  
C        C      0.552167000000     0.048433000000     0.277893000000    -0.0156522  
C        C      0.618233000000     0.837067000000     0.611227000000    -0.0156522  
C        C      0.162933000000     0.781167000000     0.611227000000    -0.0156522  
C        C      0.218833000000     0.381767000000     0.611227000000    -0.0156522  
C        C      0.715100000000     0.829600000000     0.055440000000    -0.0156522  
C        C      0.170400000000     0.885500000000     0.055440000000    -0.0156522  
C        C      0.114500000000     0.284900000000     0.055440000000    -0.0156522  
C        C      0.048433000000     0.496267000000     0.722107000000    -0.0156522  
C        C      0.503733000000     0.552167000000     0.722107000000    -0.0156522  
C        C      0.447833000000     0.951567000000     0.722107000000    -0.0156522  
C        C      0.381767000000     0.162933000000     0.388773000000    -0.0156522  
C        C      0.837067000000     0.218833000000     0.388773000000    -0.0156522  
C        C      0.781167000000     0.618233000000     0.388773000000    -0.0156522  
N        N      0.276680000000     0.300980000000     0.930730000000    -0.273838   
N        N      0.699020000000     0.975700000000     0.930730000000    -0.273838   
N        N      0.024300000000     0.723320000000     0.930730000000    -0.273838   
N        N      0.943347000000     0.634313000000     0.264063000000    -0.273838   
N        N      0.365687000000     0.309033000000     0.264063000000    -0.273838   
N        N      0.690967000000     0.056653000000     0.264063000000    -0.273838   
N        N      0.610013000000     0.967647000000     0.597397000000    -0.273838   
N        N      0.032353000000     0.642367000000     0.597397000000    -0.273838   
N        N      0.357633000000     0.389987000000     0.597397000000    -0.273838   
N        N      0.723320000000     0.699020000000     0.069270000000    -0.273838   
N        N      0.300980000000     0.024300000000     0.069270000000    -0.273838   
N        N      0.975700000000     0.276680000000     0.069270000000    -0.273838   
N        N      0.056653000000     0.365687000000     0.735937000000    -0.273838   
N        N      0.634313000000     0.690967000000     0.735937000000    -0.273838   
N        N      0.309033000000     0.943347000000     0.735937000000    -0.273838   
N        N      0.389987000000     0.032353000000     0.402603000000    -0.273838   
N        N      0.967647000000     0.357633000000     0.402603000000    -0.273838   
N        N      0.642367000000     0.610013000000     0.402603000000    -0.273838   
N        N      0.302820000000     0.334100000000     0.813740000000    -0.273838   
N        N      0.665900000000     0.968720000000     0.813740000000    -0.273838   
N        N      0.031280000000     0.697180000000     0.813740000000    -0.273838   
N        N      0.969487000000     0.667433000000     0.147073000000    -0.273838   
N        N      0.332567000000     0.302053000000     0.147073000000    -0.273838   
N        N      0.697947000000     0.030513000000     0.147073000000    -0.273838   
N        N      0.636153000000     0.000767000000     0.480407000000    -0.273838   
N        N      0.999233000000     0.635387000000     0.480407000000    -0.273838   
N        N      0.364613000000     0.363847000000     0.480407000000    -0.273838   
N        N      0.697180000000     0.665900000000     0.186260000000    -0.273838   
N        N      0.334100000000     0.031280000000     0.186260000000    -0.273838   
N        N      0.968720000000     0.302820000000     0.186260000000    -0.273838   
N        N      0.030513000000     0.332567000000     0.852927000000    -0.273838   
N        N      0.667433000000     0.697947000000     0.852927000000    -0.273838   
N        N      0.302053000000     0.969487000000     0.852927000000    -0.273838   
N        N      0.363847000000     0.999233000000     0.519593000000    -0.273838   
N        N      0.000767000000     0.364613000000     0.519593000000    -0.273838   
N        N      0.635387000000     0.636153000000     0.519593000000    -0.273838   
N        N      0.327800000000     0.152800000000     0.768370000000    -0.273838   
N        N      0.847200000000     0.175000000000     0.768370000000    -0.273838   
N        N      0.825000000000     0.672200000000     0.768370000000    -0.273838   
N        N      0.994467000000     0.486133000000     0.101703000000    -0.273838   
N        N      0.513867000000     0.508333000000     0.101703000000    -0.273838   
N        N      0.491667000000     0.005533000000     0.101703000000    -0.273838   
N        N      0.661133000000     0.819467000000     0.435037000000    -0.273838   
N        N      0.180533000000     0.841667000000     0.435037000000    -0.273838   
N        N      0.158333000000     0.338867000000     0.435037000000    -0.273838   
N        N      0.672200000000     0.847200000000     0.231630000000    -0.273838   
N        N      0.152800000000     0.825000000000     0.231630000000    -0.273838   
N        N      0.175000000000     0.327800000000     0.231630000000    -0.273838   
N        N      0.005533000000     0.513867000000     0.898297000000    -0.273838   
N        N      0.486133000000     0.491667000000     0.898297000000    -0.273838   
N        N      0.508333000000     0.994467000000     0.898297000000    -0.273838   
N        N      0.338867000000     0.180533000000     0.564963000000    -0.273838   
N        N      0.819467000000     0.158333000000     0.564963000000    -0.273838   
N        N      0.841667000000     0.661133000000     0.564963000000    -0.273838   
N        N      0.274310000000     0.178700000000     0.012390000000    -0.273838   
N        N      0.821300000000     0.095610000000     0.012390000000    -0.273838   
N        N      0.904390000000     0.725690000000     0.012390000000    -0.273838   
N        N      0.940977000000     0.512033000000     0.345723000000    -0.273838   
N        N      0.487967000000     0.428943000000     0.345723000000    -0.273838   
N        N      0.571057000000     0.059023000000     0.345723000000    -0.273838   
N        N      0.607643000000     0.845367000000     0.679057000000    -0.273838   
N        N      0.154633000000     0.762277000000     0.679057000000    -0.273838   
N        N      0.237723000000     0.392357000000     0.679057000000    -0.273838   
N        N      0.725690000000     0.821300000000     0.987610000000    -0.273838   
N        N      0.178700000000     0.904390000000     0.987610000000    -0.273838   
N        N      0.095610000000     0.274310000000     0.987610000000    -0.273838   
N        N      0.059023000000     0.487967000000     0.654277000000    -0.273838   
N        N      0.512033000000     0.571057000000     0.654277000000    -0.273838   
N        N      0.428943000000     0.940977000000     0.654277000000    -0.273838   
N        N      0.392357000000     0.154633000000     0.320943000000    -0.273838   
N        N      0.845367000000     0.237723000000     0.320943000000    -0.273838   
N        N      0.762277000000     0.607643000000     0.320943000000    -0.273838   
O        O      0.340500000000     0.264640000000     0.703380000000    -0.304099   
O        O      0.735360000000     0.075860000000     0.703380000000    -0.304099   
O        O      0.924140000000     0.659500000000     0.703380000000    -0.304099   
O        O      0.007167000000     0.597973000000     0.036713000000    -0.304099   
O        O      0.402027000000     0.409193000000     0.036713000000    -0.304099   
O        O      0.590807000000     0.992833000000     0.036713000000    -0.304099   
O        O      0.673833000000     0.931307000000     0.370047000000    -0.304099   
O        O      0.068693000000     0.742527000000     0.370047000000    -0.304099   
O        O      0.257473000000     0.326167000000     0.370047000000    -0.304099   
O        O      0.659500000000     0.735360000000     0.296620000000    -0.304099   
O        O      0.264640000000     0.924140000000     0.296620000000    -0.304099   
O        O      0.075860000000     0.340500000000     0.296620000000    -0.304099   
O        O      0.992833000000     0.402027000000     0.963287000000    -0.304099   
O        O      0.597973000000     0.590807000000     0.963287000000    -0.304099   
O        O      0.409193000000     0.007167000000     0.963287000000    -0.304099   
O        O      0.326167000000     0.068693000000     0.629953000000    -0.304099   
O        O      0.931307000000     0.257473000000     0.629953000000    -0.304099   
O        O      0.742527000000     0.673833000000     0.629953000000    -0.304099   
O        O      0.290890000000     0.109730000000     0.914300000000    -0.304099   
O        O      0.890270000000     0.181160000000     0.914300000000    -0.304099   
O        O      0.818840000000     0.709110000000     0.914300000000    -0.304099   
O        O      0.957557000000     0.443063000000     0.247633000000    -0.304099   
O        O      0.556937000000     0.514493000000     0.247633000000    -0.304099   
O        O      0.485507000000     0.042443000000     0.247633000000    -0.304099   
O        O      0.624223000000     0.776397000000     0.580967000000    -0.304099   
O        O      0.223603000000     0.847827000000     0.580967000000    -0.304099   
O        O      0.152173000000     0.375777000000     0.580967000000    -0.304099   
O        O      0.709110000000     0.890270000000     0.085700000000    -0.304099   
O        O      0.109730000000     0.818840000000     0.085700000000    -0.304099   
O        O      0.181160000000     0.290890000000     0.085700000000    -0.304099   
O        O      0.042443000000     0.556937000000     0.752367000000    -0.304099   
O        O      0.443063000000     0.485507000000     0.752367000000    -0.304099   
O        O      0.514493000000     0.957557000000     0.752367000000    -0.304099   
O        O      0.375777000000     0.223603000000     0.419033000000    -0.304099   
O        O      0.776397000000     0.152173000000     0.419033000000    -0.304099   
O        O      0.847827000000     0.624223000000     0.419033000000    -0.304099   


