data_XUVHEB_original

_audit_creation_method RASPA-1.0
_audit_creation_date 2022-1-30
_audit_author_name 'Felipe Lopes de Oliveira <felipe.lopes.oliveira@ibm.com>'

_cell_length_a    14.532
_cell_length_b    18.184
_cell_length_c    25.037
_cell_angle_alpha 90
_cell_angle_beta  90
_cell_angle_gamma 90
_cell_volume      6616.02

_symmetry_cell_setting          triclinic
_symmetry_space_group_name_Hall 'P 1'
_symmetry_space_group_name_H-M  'P 1'
_symmetry_Int_Tables_number     1

_symmetry_equiv_pos_as_xyz 'x,y,z'

loop_
_atom_site_label
_atom_site_type_symbol
_atom_site_fract_x
_atom_site_fract_y
_atom_site_fract_z
_atom_site_charge
Zn       Zn     0.535360000000     0.943150000000     0.648080000000     0.523624   
Zn       Zn     0.464640000000     0.556850000000     0.648080000000     0.523624   
Zn       Zn     0.035360000000     0.556850000000     0.148080000000     0.523624   
Zn       Zn     0.964640000000     0.943150000000     0.148080000000     0.523624   
Zn       Zn     0.500000000000     0.750000000000     0.648370000000     0.523624   
Zn       Zn     0.000000000000     0.750000000000     0.148370000000     0.523624   
Zn       Zn     0.964640000000     0.443150000000     0.851920000000     0.523624   
Zn       Zn     0.035360000000     0.056850000000     0.851920000000     0.523624   
Zn       Zn     0.464640000000     0.056850000000     0.351920000000     0.523624   
Zn       Zn     0.535360000000     0.443150000000     0.351920000000     0.523624   
Zn       Zn     0.000000000000     0.250000000000     0.851630000000     0.523624   
Zn       Zn     0.500000000000     0.250000000000     0.351630000000     0.523624   
H        H      0.478800000000     0.066000000000     0.574600000000     0.0498923  
H        H      0.462800000000     0.191500000000     0.573500000000     0.0498923  
H        H      0.554000000000     0.198400000000     0.723600000000     0.0498923  
H        H      0.569500000000     0.072200000000     0.721100000000     0.0498923  
H        H      0.630900000000     0.521500000000     0.508700000000     0.0498923  
H        H      0.715400000000     0.524600000000     0.430600000000     0.0498923  
H        H      0.731000000000     0.744200000000     0.439700000000     0.0498923  
H        H      0.646600000000     0.742300000000     0.518100000000     0.0498923  
H        H      0.821800000000     0.531500000000     0.375900000000     0.0498923  
H        H      0.765400000000     0.737900000000     0.356400000000     0.0498923  
H        H      0.839400000000     0.917400000000     0.671600000000     0.0498923  
H        H      0.984200000000     0.870100000000     0.674900000000     0.0498923  
H        H      0.886500000000     0.669700000000     0.651100000000     0.0498923  
H        H      0.739400000000     0.717600000000     0.643400000000     0.0498923  
H        H      0.900900000000     0.531100000000     0.297400000000     0.0498923  
H        H      0.859500000000     0.738800000000     0.282700000000     0.0498923  
H        H      0.521200000000     0.434000000000     0.574600000000     0.0498923  
H        H      0.537200000000     0.308500000000     0.573500000000     0.0498923  
H        H      0.446000000000     0.301600000000     0.723600000000     0.0498923  
H        H      0.430500000000     0.427800000000     0.721100000000     0.0498923  
H        H      0.369100000000     0.978500000000     0.508700000000     0.0498923  
H        H      0.284600000000     0.975400000000     0.430600000000     0.0498923  
H        H      0.269000000000     0.755800000000     0.439700000000     0.0498923  
H        H      0.353400000000     0.757700000000     0.518100000000     0.0498923  
H        H      0.178200000000     0.968500000000     0.375900000000     0.0498923  
H        H      0.234600000000     0.762100000000     0.356400000000     0.0498923  
H        H      0.160600000000     0.582600000000     0.671600000000     0.0498923  
H        H      0.015800000000     0.629900000000     0.674900000000     0.0498923  
H        H      0.113500000000     0.830300000000     0.651100000000     0.0498923  
H        H      0.260600000000     0.782400000000     0.643400000000     0.0498923  
H        H      0.099100000000     0.968900000000     0.297400000000     0.0498923  
H        H      0.140500000000     0.761200000000     0.282700000000     0.0498923  
H        H      0.978800000000     0.434000000000     0.074600000000     0.0498923  
H        H      0.962800000000     0.308500000000     0.073500000000     0.0498923  
H        H      0.054000000000     0.301600000000     0.223600000000     0.0498923  
H        H      0.069500000000     0.427800000000     0.221100000000     0.0498923  
H        H      0.130900000000     0.978500000000     0.008700000000     0.0498923  
H        H      0.215400000000     0.975400000000     0.930600000000     0.0498923  
H        H      0.231000000000     0.755800000000     0.939700000000     0.0498923  
H        H      0.146600000000     0.757700000000     0.018100000000     0.0498923  
H        H      0.321800000000     0.968500000000     0.875900000000     0.0498923  
H        H      0.265400000000     0.762100000000     0.856400000000     0.0498923  
H        H      0.339400000000     0.582600000000     0.171600000000     0.0498923  
H        H      0.484200000000     0.629900000000     0.174900000000     0.0498923  
H        H      0.386500000000     0.830300000000     0.151100000000     0.0498923  
H        H      0.239400000000     0.782400000000     0.143400000000     0.0498923  
H        H      0.400900000000     0.968900000000     0.797400000000     0.0498923  
H        H      0.359500000000     0.761200000000     0.782700000000     0.0498923  
H        H      0.021200000000     0.066000000000     0.074600000000     0.0498923  
H        H      0.037200000000     0.191500000000     0.073500000000     0.0498923  
H        H      0.946000000000     0.198400000000     0.223600000000     0.0498923  
H        H      0.930500000000     0.072200000000     0.221100000000     0.0498923  
H        H      0.869100000000     0.521500000000     0.008700000000     0.0498923  
H        H      0.784600000000     0.524600000000     0.930600000000     0.0498923  
H        H      0.769000000000     0.744200000000     0.939700000000     0.0498923  
H        H      0.853400000000     0.742300000000     0.018100000000     0.0498923  
H        H      0.678200000000     0.531500000000     0.875900000000     0.0498923  
H        H      0.734600000000     0.737900000000     0.856400000000     0.0498923  
H        H      0.660600000000     0.917400000000     0.171600000000     0.0498923  
H        H      0.515800000000     0.870100000000     0.174900000000     0.0498923  
H        H      0.613500000000     0.669700000000     0.151100000000     0.0498923  
H        H      0.760600000000     0.717600000000     0.143400000000     0.0498923  
H        H      0.599100000000     0.531100000000     0.797400000000     0.0498923  
H        H      0.640500000000     0.738800000000     0.782700000000     0.0498923  
H        H      0.021200000000     0.566000000000     0.925400000000     0.0498923  
H        H      0.037200000000     0.691500000000     0.926500000000     0.0498923  
H        H      0.946000000000     0.698400000000     0.776400000000     0.0498923  
H        H      0.930500000000     0.572200000000     0.778900000000     0.0498923  
H        H      0.869100000000     0.021500000000     0.991300000000     0.0498923  
H        H      0.784600000000     0.024600000000     0.069400000000     0.0498923  
H        H      0.769000000000     0.244200000000     0.060300000000     0.0498923  
H        H      0.853400000000     0.242300000000     0.981900000000     0.0498923  
H        H      0.678200000000     0.031500000000     0.124100000000     0.0498923  
H        H      0.734600000000     0.237900000000     0.143600000000     0.0498923  
H        H      0.660600000000     0.417400000000     0.828400000000     0.0498923  
H        H      0.515800000000     0.370100000000     0.825100000000     0.0498923  
H        H      0.613500000000     0.169700000000     0.848900000000     0.0498923  
H        H      0.760600000000     0.217600000000     0.856600000000     0.0498923  
H        H      0.599100000000     0.031100000000     0.202600000000     0.0498923  
H        H      0.640500000000     0.238800000000     0.217300000000     0.0498923  
H        H      0.978800000000     0.934000000000     0.925400000000     0.0498923  
H        H      0.962800000000     0.808500000000     0.926500000000     0.0498923  
H        H      0.054000000000     0.801600000000     0.776400000000     0.0498923  
H        H      0.069500000000     0.927800000000     0.778900000000     0.0498923  
H        H      0.130900000000     0.478500000000     0.991300000000     0.0498923  
H        H      0.215400000000     0.475400000000     0.069400000000     0.0498923  
H        H      0.231000000000     0.255800000000     0.060300000000     0.0498923  
H        H      0.146600000000     0.257700000000     0.981900000000     0.0498923  
H        H      0.321800000000     0.468500000000     0.124100000000     0.0498923  
H        H      0.265400000000     0.262100000000     0.143600000000     0.0498923  
H        H      0.339400000000     0.082600000000     0.828400000000     0.0498923  
H        H      0.484200000000     0.129900000000     0.825100000000     0.0498923  
H        H      0.386500000000     0.330300000000     0.848900000000     0.0498923  
H        H      0.239400000000     0.282400000000     0.856600000000     0.0498923  
H        H      0.400900000000     0.468900000000     0.202600000000     0.0498923  
H        H      0.359500000000     0.261200000000     0.217300000000     0.0498923  
H        H      0.521200000000     0.934000000000     0.425400000000     0.0498923  
H        H      0.537200000000     0.808500000000     0.426500000000     0.0498923  
H        H      0.446000000000     0.801600000000     0.276400000000     0.0498923  
H        H      0.430500000000     0.927800000000     0.278900000000     0.0498923  
H        H      0.369100000000     0.478500000000     0.491300000000     0.0498923  
H        H      0.284600000000     0.475400000000     0.569400000000     0.0498923  
H        H      0.269000000000     0.255800000000     0.560300000000     0.0498923  
H        H      0.353400000000     0.257700000000     0.481900000000     0.0498923  
H        H      0.178200000000     0.468500000000     0.624100000000     0.0498923  
H        H      0.234600000000     0.262100000000     0.643600000000     0.0498923  
H        H      0.160600000000     0.082600000000     0.328400000000     0.0498923  
H        H      0.015800000000     0.129900000000     0.325100000000     0.0498923  
H        H      0.113500000000     0.330300000000     0.348900000000     0.0498923  
H        H      0.260600000000     0.282400000000     0.356600000000     0.0498923  
H        H      0.099100000000     0.468900000000     0.702600000000     0.0498923  
H        H      0.140500000000     0.261200000000     0.717300000000     0.0498923  
H        H      0.478800000000     0.566000000000     0.425400000000     0.0498923  
H        H      0.462800000000     0.691500000000     0.426500000000     0.0498923  
H        H      0.554000000000     0.698400000000     0.276400000000     0.0498923  
H        H      0.569500000000     0.572200000000     0.278900000000     0.0498923  
H        H      0.630900000000     0.021500000000     0.491300000000     0.0498923  
H        H      0.715400000000     0.024600000000     0.569400000000     0.0498923  
H        H      0.731000000000     0.244200000000     0.560300000000     0.0498923  
H        H      0.646600000000     0.242300000000     0.481900000000     0.0498923  
H        H      0.821800000000     0.031500000000     0.624100000000     0.0498923  
H        H      0.765400000000     0.237900000000     0.643600000000     0.0498923  
H        H      0.839400000000     0.417400000000     0.328400000000     0.0498923  
H        H      0.984200000000     0.370100000000     0.325100000000     0.0498923  
H        H      0.886500000000     0.169700000000     0.348900000000     0.0498923  
H        H      0.739400000000     0.217600000000     0.356600000000     0.0498923  
H        H      0.900900000000     0.031100000000     0.702600000000     0.0498923  
H        H      0.859500000000     0.238800000000     0.717300000000     0.0498923  
C        C      0.494100000000     0.092900000000     0.604900000000     0.0234197  
C        C      0.484000000000     0.168300000000     0.604300000000     0.0234197  
C        C      0.504900000000     0.209500000000     0.648600000000     0.0234197  
C        C      0.538000000000     0.172600000000     0.692900000000     0.0234197  
C        C      0.547200000000     0.096600000000     0.691100000000     0.0234197  
C        C      0.626800000000     0.632400000000     0.520100000000     0.0234197  
C        C      0.650000000000     0.566300000000     0.494600000000     0.0234197  
C        C      0.701700000000     0.568300000000     0.448200000000     0.0234197  
C        C      0.733500000000     0.634800000000     0.427200000000     0.0234197  
C        C      0.711000000000     0.699500000000     0.453600000000     0.0234197  
C        C      0.659300000000     0.698600000000     0.500300000000     0.0234197  
C        C      0.788000000000     0.635500000000     0.377100000000     0.0234197  
C        C      0.827200000000     0.575400000000     0.357100000000     0.0234197  
C        C      0.796100000000     0.695100000000     0.346700000000     0.0234197  
C        C      0.678200000000     0.853400000000     0.651200000000     0.0234197  
C        C      0.773800000000     0.822800000000     0.655700000000     0.0234197  
C        C      0.848300000000     0.867300000000     0.666100000000     0.0234197  
C        C      0.935000000000     0.838700000000     0.668300000000     0.0234197  
C        C      0.952000000000     0.765100000000     0.661100000000     0.0234197  
C        C      0.877700000000     0.720300000000     0.653700000000     0.0234197  
C        C      0.788800000000     0.748900000000     0.649900000000     0.0234197  
C        C      0.936900000000     0.632400000000     0.229200000000     0.0234197  
C        C      0.887600000000     0.634300000000     0.280600000000     0.0234197  
C        C      0.875800000000     0.575200000000     0.309400000000     0.0234197  
C        C      0.849800000000     0.694600000000     0.300400000000     0.0234197  
C        C      0.567500000000     0.631700000000     0.569000000000     0.0234197  
C        C      0.505900000000     0.407100000000     0.604900000000     0.0234197  
C        C      0.516000000000     0.331700000000     0.604300000000     0.0234197  
C        C      0.495100000000     0.290500000000     0.648600000000     0.0234197  
C        C      0.462000000000     0.327400000000     0.692900000000     0.0234197  
C        C      0.452800000000     0.403400000000     0.691100000000     0.0234197  
C        C      0.373200000000     0.867600000000     0.520100000000     0.0234197  
C        C      0.350000000000     0.933700000000     0.494600000000     0.0234197  
C        C      0.298300000000     0.931700000000     0.448200000000     0.0234197  
C        C      0.266500000000     0.865200000000     0.427200000000     0.0234197  
C        C      0.289000000000     0.800500000000     0.453600000000     0.0234197  
C        C      0.340700000000     0.801400000000     0.500300000000     0.0234197  
C        C      0.212000000000     0.864500000000     0.377100000000     0.0234197  
C        C      0.172800000000     0.924600000000     0.357100000000     0.0234197  
C        C      0.203900000000     0.804900000000     0.346700000000     0.0234197  
C        C      0.321800000000     0.646600000000     0.651200000000     0.0234197  
C        C      0.226200000000     0.677200000000     0.655700000000     0.0234197  
C        C      0.151700000000     0.632700000000     0.666100000000     0.0234197  
C        C      0.065000000000     0.661300000000     0.668300000000     0.0234197  
C        C      0.048000000000     0.734900000000     0.661100000000     0.0234197  
C        C      0.122300000000     0.779700000000     0.653700000000     0.0234197  
C        C      0.211200000000     0.751100000000     0.649900000000     0.0234197  
C        C      0.063100000000     0.867600000000     0.229200000000     0.0234197  
C        C      0.112400000000     0.865700000000     0.280600000000     0.0234197  
C        C      0.124200000000     0.924800000000     0.309400000000     0.0234197  
C        C      0.150200000000     0.805400000000     0.300400000000     0.0234197  
C        C      0.432500000000     0.868300000000     0.569000000000     0.0234197  
C        C      0.994100000000     0.407100000000     0.104900000000     0.0234197  
C        C      0.984000000000     0.331700000000     0.104300000000     0.0234197  
C        C      0.004900000000     0.290500000000     0.148600000000     0.0234197  
C        C      0.038000000000     0.327400000000     0.192900000000     0.0234197  
C        C      0.047200000000     0.403400000000     0.191100000000     0.0234197  
C        C      0.126800000000     0.867600000000     0.020100000000     0.0234197  
C        C      0.150000000000     0.933700000000     0.994600000000     0.0234197  
C        C      0.201700000000     0.931700000000     0.948200000000     0.0234197  
C        C      0.233500000000     0.865200000000     0.927200000000     0.0234197  
C        C      0.211000000000     0.800500000000     0.953600000000     0.0234197  
C        C      0.159300000000     0.801400000000     0.000300000000     0.0234197  
C        C      0.288000000000     0.864500000000     0.877100000000     0.0234197  
C        C      0.327200000000     0.924600000000     0.857100000000     0.0234197  
C        C      0.296100000000     0.804900000000     0.846700000000     0.0234197  
C        C      0.178200000000     0.646600000000     0.151200000000     0.0234197  
C        C      0.273800000000     0.677200000000     0.155700000000     0.0234197  
C        C      0.348300000000     0.632700000000     0.166100000000     0.0234197  
C        C      0.435000000000     0.661300000000     0.168300000000     0.0234197  
C        C      0.452000000000     0.734900000000     0.161100000000     0.0234197  
C        C      0.377700000000     0.779700000000     0.153700000000     0.0234197  
C        C      0.288800000000     0.751100000000     0.149900000000     0.0234197  
C        C      0.436900000000     0.867600000000     0.729200000000     0.0234197  
C        C      0.387600000000     0.865700000000     0.780600000000     0.0234197  
C        C      0.375800000000     0.924800000000     0.809400000000     0.0234197  
C        C      0.349800000000     0.805400000000     0.800400000000     0.0234197  
C        C      0.067500000000     0.868300000000     0.069000000000     0.0234197  
C        C      0.005900000000     0.092900000000     0.104900000000     0.0234197  
C        C      0.016000000000     0.168300000000     0.104300000000     0.0234197  
C        C      0.995100000000     0.209500000000     0.148600000000     0.0234197  
C        C      0.962000000000     0.172600000000     0.192900000000     0.0234197  
C        C      0.952800000000     0.096600000000     0.191100000000     0.0234197  
C        C      0.873200000000     0.632400000000     0.020100000000     0.0234197  
C        C      0.850000000000     0.566300000000     0.994600000000     0.0234197  
C        C      0.798300000000     0.568300000000     0.948200000000     0.0234197  
C        C      0.766500000000     0.634800000000     0.927200000000     0.0234197  
C        C      0.789000000000     0.699500000000     0.953600000000     0.0234197  
C        C      0.840700000000     0.698600000000     0.000300000000     0.0234197  
C        C      0.712000000000     0.635500000000     0.877100000000     0.0234197  
C        C      0.672800000000     0.575400000000     0.857100000000     0.0234197  
C        C      0.703900000000     0.695100000000     0.846700000000     0.0234197  
C        C      0.821800000000     0.853400000000     0.151200000000     0.0234197  
C        C      0.726200000000     0.822800000000     0.155700000000     0.0234197  
C        C      0.651700000000     0.867300000000     0.166100000000     0.0234197  
C        C      0.565000000000     0.838700000000     0.168300000000     0.0234197  
C        C      0.548000000000     0.765100000000     0.161100000000     0.0234197  
C        C      0.622300000000     0.720300000000     0.153700000000     0.0234197  
C        C      0.711200000000     0.748900000000     0.149900000000     0.0234197  
C        C      0.563100000000     0.632400000000     0.729200000000     0.0234197  
C        C      0.612400000000     0.634300000000     0.780600000000     0.0234197  
C        C      0.624200000000     0.575200000000     0.809400000000     0.0234197  
C        C      0.650200000000     0.694600000000     0.800400000000     0.0234197  
C        C      0.932500000000     0.631700000000     0.069000000000     0.0234197  
C        C      0.005900000000     0.592900000000     0.895100000000     0.0234197  
C        C      0.016000000000     0.668300000000     0.895700000000     0.0234197  
C        C      0.995100000000     0.709500000000     0.851400000000     0.0234197  
C        C      0.962000000000     0.672600000000     0.807100000000     0.0234197  
C        C      0.952800000000     0.596600000000     0.808900000000     0.0234197  
C        C      0.873200000000     0.132400000000     0.979900000000     0.0234197  
C        C      0.850000000000     0.066300000000     0.005400000000     0.0234197  
C        C      0.798300000000     0.068300000000     0.051800000000     0.0234197  
C        C      0.766500000000     0.134800000000     0.072800000000     0.0234197  
C        C      0.789000000000     0.199500000000     0.046400000000     0.0234197  
C        C      0.840700000000     0.198600000000     0.999700000000     0.0234197  
C        C      0.712000000000     0.135500000000     0.122900000000     0.0234197  
C        C      0.672800000000     0.075400000000     0.142900000000     0.0234197  
C        C      0.703900000000     0.195100000000     0.153300000000     0.0234197  
C        C      0.821800000000     0.353400000000     0.848800000000     0.0234197  
C        C      0.726200000000     0.322800000000     0.844300000000     0.0234197  
C        C      0.651700000000     0.367300000000     0.833900000000     0.0234197  
C        C      0.565000000000     0.338700000000     0.831700000000     0.0234197  
C        C      0.548000000000     0.265100000000     0.838900000000     0.0234197  
C        C      0.622300000000     0.220300000000     0.846300000000     0.0234197  
C        C      0.711200000000     0.248900000000     0.850100000000     0.0234197  
C        C      0.563100000000     0.132400000000     0.270800000000     0.0234197  
C        C      0.612400000000     0.134300000000     0.219400000000     0.0234197  
C        C      0.624200000000     0.075200000000     0.190600000000     0.0234197  
C        C      0.650200000000     0.194600000000     0.199600000000     0.0234197  
C        C      0.932500000000     0.131700000000     0.931000000000     0.0234197  
C        C      0.994100000000     0.907100000000     0.895100000000     0.0234197  
C        C      0.984000000000     0.831700000000     0.895700000000     0.0234197  
C        C      0.004900000000     0.790500000000     0.851400000000     0.0234197  
C        C      0.038000000000     0.827400000000     0.807100000000     0.0234197  
C        C      0.047200000000     0.903400000000     0.808900000000     0.0234197  
C        C      0.126800000000     0.367600000000     0.979900000000     0.0234197  
C        C      0.150000000000     0.433700000000     0.005400000000     0.0234197  
C        C      0.201700000000     0.431700000000     0.051800000000     0.0234197  
C        C      0.233500000000     0.365200000000     0.072800000000     0.0234197  
C        C      0.211000000000     0.300500000000     0.046400000000     0.0234197  
C        C      0.159300000000     0.301400000000     0.999700000000     0.0234197  
C        C      0.288000000000     0.364500000000     0.122900000000     0.0234197  
C        C      0.327200000000     0.424600000000     0.142900000000     0.0234197  
C        C      0.296100000000     0.304900000000     0.153300000000     0.0234197  
C        C      0.178200000000     0.146600000000     0.848800000000     0.0234197  
C        C      0.273800000000     0.177200000000     0.844300000000     0.0234197  
C        C      0.348300000000     0.132700000000     0.833900000000     0.0234197  
C        C      0.435000000000     0.161300000000     0.831700000000     0.0234197  
C        C      0.452000000000     0.234900000000     0.838900000000     0.0234197  
C        C      0.377700000000     0.279700000000     0.846300000000     0.0234197  
C        C      0.288800000000     0.251100000000     0.850100000000     0.0234197  
C        C      0.436900000000     0.367600000000     0.270800000000     0.0234197  
C        C      0.387600000000     0.365700000000     0.219400000000     0.0234197  
C        C      0.375800000000     0.424800000000     0.190600000000     0.0234197  
C        C      0.349800000000     0.305400000000     0.199600000000     0.0234197  
C        C      0.067500000000     0.368300000000     0.931000000000     0.0234197  
C        C      0.505900000000     0.907100000000     0.395100000000     0.0234197  
C        C      0.516000000000     0.831700000000     0.395700000000     0.0234197  
C        C      0.495100000000     0.790500000000     0.351400000000     0.0234197  
C        C      0.462000000000     0.827400000000     0.307100000000     0.0234197  
C        C      0.452800000000     0.903400000000     0.308900000000     0.0234197  
C        C      0.373200000000     0.367600000000     0.479900000000     0.0234197  
C        C      0.350000000000     0.433700000000     0.505400000000     0.0234197  
C        C      0.298300000000     0.431700000000     0.551800000000     0.0234197  
C        C      0.266500000000     0.365200000000     0.572800000000     0.0234197  
C        C      0.289000000000     0.300500000000     0.546400000000     0.0234197  
C        C      0.340700000000     0.301400000000     0.499700000000     0.0234197  
C        C      0.212000000000     0.364500000000     0.622900000000     0.0234197  
C        C      0.172800000000     0.424600000000     0.642900000000     0.0234197  
C        C      0.203900000000     0.304900000000     0.653300000000     0.0234197  
C        C      0.321800000000     0.146600000000     0.348800000000     0.0234197  
C        C      0.226200000000     0.177200000000     0.344300000000     0.0234197  
C        C      0.151700000000     0.132700000000     0.333900000000     0.0234197  
C        C      0.065000000000     0.161300000000     0.331700000000     0.0234197  
C        C      0.048000000000     0.234900000000     0.338900000000     0.0234197  
C        C      0.122300000000     0.279700000000     0.346300000000     0.0234197  
C        C      0.211200000000     0.251100000000     0.350100000000     0.0234197  
C        C      0.063100000000     0.367600000000     0.770800000000     0.0234197  
C        C      0.112400000000     0.365700000000     0.719400000000     0.0234197  
C        C      0.124200000000     0.424800000000     0.690600000000     0.0234197  
C        C      0.150200000000     0.305400000000     0.699600000000     0.0234197  
C        C      0.432500000000     0.368300000000     0.431000000000     0.0234197  
C        C      0.494100000000     0.592900000000     0.395100000000     0.0234197  
C        C      0.484000000000     0.668300000000     0.395700000000     0.0234197  
C        C      0.504900000000     0.709500000000     0.351400000000     0.0234197  
C        C      0.538000000000     0.672600000000     0.307100000000     0.0234197  
C        C      0.547200000000     0.596600000000     0.308900000000     0.0234197  
C        C      0.626800000000     0.132400000000     0.479900000000     0.0234197  
C        C      0.650000000000     0.066300000000     0.505400000000     0.0234197  
C        C      0.701700000000     0.068300000000     0.551800000000     0.0234197  
C        C      0.733500000000     0.134800000000     0.572800000000     0.0234197  
C        C      0.711000000000     0.199500000000     0.546400000000     0.0234197  
C        C      0.659300000000     0.198600000000     0.499700000000     0.0234197  
C        C      0.788000000000     0.135500000000     0.622900000000     0.0234197  
C        C      0.827200000000     0.075400000000     0.642900000000     0.0234197  
C        C      0.796100000000     0.195100000000     0.653300000000     0.0234197  
C        C      0.678200000000     0.353400000000     0.348800000000     0.0234197  
C        C      0.773800000000     0.322800000000     0.344300000000     0.0234197  
C        C      0.848300000000     0.367300000000     0.333900000000     0.0234197  
C        C      0.935000000000     0.338700000000     0.331700000000     0.0234197  
C        C      0.952000000000     0.265100000000     0.338900000000     0.0234197  
C        C      0.877700000000     0.220300000000     0.346300000000     0.0234197  
C        C      0.788800000000     0.248900000000     0.350100000000     0.0234197  
C        C      0.936900000000     0.132400000000     0.770800000000     0.0234197  
C        C      0.887600000000     0.134300000000     0.719400000000     0.0234197  
C        C      0.875800000000     0.075200000000     0.690600000000     0.0234197  
C        C      0.849800000000     0.194600000000     0.699600000000     0.0234197  
C        C      0.567500000000     0.131700000000     0.431000000000     0.0234197  
N        N      0.525200000000     0.057200000000     0.648190000000    -0.160455   
N        N      0.474800000000     0.442800000000     0.648190000000    -0.160455   
N        N      0.025200000000     0.442800000000     0.148190000000    -0.160455   
N        N      0.974800000000     0.057200000000     0.148190000000    -0.160455   
N        N      0.974800000000     0.557200000000     0.851810000000    -0.160455   
N        N      0.025200000000     0.942800000000     0.851810000000    -0.160455   
N        N      0.474800000000     0.942800000000     0.351810000000    -0.160455   
N        N      0.525200000000     0.557200000000     0.351810000000    -0.160455   
O        O      0.666400000000     0.920600000000     0.652900000000    -0.338695   
O        O      0.970000000000     0.574000000000     0.214370000000    -0.338695   
O        O      0.532700000000     0.572200000000     0.582610000000    -0.338695   
O        O      0.556000000000     0.688800000000     0.592200000000    -0.338695   
O        O      0.615200000000     0.814600000000     0.645300000000    -0.338695   
O        O      0.944600000000     0.687600000000     0.204200000000    -0.338695   
O        O      0.333600000000     0.579400000000     0.652900000000    -0.338695   
O        O      0.030000000000     0.926000000000     0.214370000000    -0.338695   
O        O      0.467300000000     0.927800000000     0.582610000000    -0.338695   
O        O      0.444000000000     0.811200000000     0.592200000000    -0.338695   
O        O      0.384800000000     0.685400000000     0.645300000000    -0.338695   
O        O      0.055400000000     0.812400000000     0.204200000000    -0.338695   
O        O      0.166400000000     0.579400000000     0.152900000000    -0.338695   
O        O      0.470000000000     0.926000000000     0.714370000000    -0.338695   
O        O      0.032700000000     0.927800000000     0.082610000000    -0.338695   
O        O      0.056000000000     0.811200000000     0.092200000000    -0.338695   
O        O      0.115200000000     0.685400000000     0.145300000000    -0.338695   
O        O      0.444600000000     0.812400000000     0.704200000000    -0.338695   
O        O      0.833600000000     0.920600000000     0.152900000000    -0.338695   
O        O      0.530000000000     0.574000000000     0.714370000000    -0.338695   
O        O      0.967300000000     0.572200000000     0.082610000000    -0.338695   
O        O      0.944000000000     0.688800000000     0.092200000000    -0.338695   
O        O      0.884800000000     0.814600000000     0.145300000000    -0.338695   
O        O      0.555400000000     0.687600000000     0.704200000000    -0.338695   
O        O      0.833600000000     0.420600000000     0.847100000000    -0.338695   
O        O      0.530000000000     0.074000000000     0.285630000000    -0.338695   
O        O      0.967300000000     0.072200000000     0.917390000000    -0.338695   
O        O      0.944000000000     0.188800000000     0.907800000000    -0.338695   
O        O      0.884800000000     0.314600000000     0.854700000000    -0.338695   
O        O      0.555400000000     0.187600000000     0.295800000000    -0.338695   
O        O      0.166400000000     0.079400000000     0.847100000000    -0.338695   
O        O      0.470000000000     0.426000000000     0.285630000000    -0.338695   
O        O      0.032700000000     0.427800000000     0.917390000000    -0.338695   
O        O      0.056000000000     0.311200000000     0.907800000000    -0.338695   
O        O      0.115200000000     0.185400000000     0.854700000000    -0.338695   
O        O      0.444600000000     0.312400000000     0.295800000000    -0.338695   
O        O      0.333600000000     0.079400000000     0.347100000000    -0.338695   
O        O      0.030000000000     0.426000000000     0.785630000000    -0.338695   
O        O      0.467300000000     0.427800000000     0.417390000000    -0.338695   
O        O      0.444000000000     0.311200000000     0.407800000000    -0.338695   
O        O      0.384800000000     0.185400000000     0.354700000000    -0.338695   
O        O      0.055400000000     0.312400000000     0.795800000000    -0.338695   
O        O      0.666400000000     0.420600000000     0.347100000000    -0.338695   
O        O      0.970000000000     0.074000000000     0.785630000000    -0.338695   
O        O      0.532700000000     0.072200000000     0.417390000000    -0.338695   
O        O      0.556000000000     0.188800000000     0.407800000000    -0.338695   
O        O      0.615200000000     0.314600000000     0.354700000000    -0.338695   
O        O      0.944600000000     0.187600000000     0.795800000000    -0.338695   


