data_XUWVEQ_original

_audit_creation_method RASPA-1.0
_audit_creation_date 2022-1-31
_audit_author_name 'Felipe Lopes de Oliveira <felipe.lopes.oliveira@ibm.com>'

_cell_length_a    5.0484
_cell_length_b    8.2547
_cell_length_c    12.3699
_cell_angle_alpha 90
_cell_angle_beta  90
_cell_angle_gamma 92.064
_cell_volume      515.157

_symmetry_cell_setting          triclinic
_symmetry_space_group_name_Hall 'P 1'
_symmetry_space_group_name_H-M  'P 1'
_symmetry_Int_Tables_number     1

_symmetry_equiv_pos_as_xyz 'x,y,z'

loop_
_atom_site_label
_atom_site_type_symbol
_atom_site_fract_x
_atom_site_fract_y
_atom_site_fract_z
_atom_site_charge
Ga       Ga     0.500000000000     0.000000000000     0.500000000000     3.9615     
Ga       Ga     0.500000000000     0.000000000000     0.000000000000     3.9615     
Ga       Ga     0.770700000000     0.854700000000     0.750000000000     3.9615     
Ga       Ga     0.229300000000     0.145300000000     0.250000000000     3.9615     
P        P      0.991900000000     0.766700000000     0.514000000000     0.791884   
P        P      0.008100000000     0.233300000000     0.014000000000     0.791884   
P        P      0.008100000000     0.233300000000     0.486000000000     0.791884   
P        P      0.991900000000     0.766700000000     0.986000000000     0.791884   
C        C      0.914000000000     0.558000000000     0.473600000000    -0.136761   
C        C      0.086000000000     0.442000000000     0.973600000000    -0.136761   
C        C      0.086000000000     0.442000000000     0.526400000000    -0.136761   
C        C      0.914000000000     0.558000000000     0.026400000000    -0.136761   
O        O      0.279000000000     0.794500000000     0.481500000000    -1.03981    
O        O      0.798000000000     0.873000000000     0.460400000000    -1.03981    
O        O      0.986000000000     0.769300000000     0.636900000000    -1.03981    
O        O      0.721000000000     0.205500000000     0.981500000000    -1.03981    
O        O      0.202000000000     0.127000000000     0.960400000000    -1.03981    
O        O      0.014000000000     0.230700000000     0.136900000000    -1.03981    
O        O      0.721000000000     0.205500000000     0.518500000000    -1.03981    
O        O      0.202000000000     0.127000000000     0.539600000000    -1.03981    
O        O      0.014000000000     0.230700000000     0.363100000000    -1.03981    
O        O      0.279000000000     0.794500000000     0.018500000000    -1.03981    
O        O      0.798000000000     0.873000000000     0.039600000000    -1.03981    
O        O      0.986000000000     0.769300000000     0.863100000000    -1.03981    
F        F      0.542000000000     0.956500000000     0.651100000000    -1.49718    
F        F      0.458000000000     0.043500000000     0.151100000000    -1.49718    
F        F      0.458000000000     0.043500000000     0.348900000000    -1.49718    
F        F      0.542000000000     0.956500000000     0.848900000000    -1.49718    


