data_YARFII_original

_audit_creation_method RASPA-1.0
_audit_creation_date 2022-1-28
_audit_author_name 'Felipe Lopes de Oliveira <felipe.lopes.oliveira@ibm.com>'

_cell_length_a    10.8977
_cell_length_b    14.6613
_cell_length_c    18.7116
_cell_angle_alpha 90
_cell_angle_beta  90
_cell_angle_gamma 90
_cell_volume      2989.64

_symmetry_cell_setting          triclinic
_symmetry_space_group_name_Hall 'P 1'
_symmetry_space_group_name_H-M  'P 1'
_symmetry_Int_Tables_number     1

_symmetry_equiv_pos_as_xyz 'x,y,z'

loop_
_atom_site_label
_atom_site_type_symbol
_atom_site_fract_x
_atom_site_fract_y
_atom_site_fract_z
_atom_site_charge
Zn       Zn     0.540850000000     0.953760000000     0.998573000000     0.42394    
Zn       Zn     0.459150000000     0.453760000000     0.001427000000     0.42394    
Zn       Zn     0.959150000000     0.953760000000     0.498573000000     0.42394    
Zn       Zn     0.040850000000     0.453760000000     0.501427000000     0.42394    
H        H      0.714500000000     0.104300000000     0.091700000000     0.0565398  
H        H      0.285500000000     0.604300000000     0.908300000000     0.0565398  
H        H      0.785500000000     0.104300000000     0.591700000000     0.0565398  
H        H      0.214500000000     0.604300000000     0.408300000000     0.0565398  
H        H      0.715700000000     0.186000000000     0.145900000000     0.0565398  
H        H      0.284300000000     0.686000000000     0.854100000000     0.0565398  
H        H      0.784300000000     0.186000000000     0.645900000000     0.0565398  
H        H      0.215700000000     0.686000000000     0.354100000000     0.0565398  
H        H      0.582100000000     0.321400000000     0.111400000000     0.0565398  
H        H      0.417900000000     0.821400000000     0.888600000000     0.0565398  
H        H      0.917900000000     0.321400000000     0.611400000000     0.0565398  
H        H      0.082100000000     0.821400000000     0.388600000000     0.0565398  
H        H      0.538000000000     0.282300000000     0.906300000000     0.0565398  
H        H      0.462000000000     0.782300000000     0.093700000000     0.0565398  
H        H      0.962000000000     0.282300000000     0.406300000000     0.0565398  
H        H      0.038000000000     0.782300000000     0.593700000000     0.0565398  
H        H      0.667600000000     0.157300000000     0.951600000000     0.0565398  
H        H      0.332400000000     0.657300000000     0.048400000000     0.0565398  
H        H      0.832400000000     0.157300000000     0.451600000000     0.0565398  
H        H      0.167600000000     0.657300000000     0.548400000000     0.0565398  
H        H      0.713500000000     0.927200000000     0.747900000000     0.0565398  
H        H      0.286500000000     0.427200000000     0.252100000000     0.0565398  
H        H      0.786500000000     0.927200000000     0.247900000000     0.0565398  
H        H      0.213500000000     0.427200000000     0.752100000000     0.0565398  
H        H      0.047400000000     0.029500000000     0.713000000000     0.0565398  
H        H      0.952600000000     0.529500000000     0.287000000000     0.0565398  
H        H      0.452600000000     0.029500000000     0.213000000000     0.0565398  
H        H      0.547400000000     0.529500000000     0.787000000000     0.0565398  
H        H      0.060200000000     0.074900000000     0.832800000000     0.0565398  
H        H      0.939800000000     0.574900000000     0.167200000000     0.0565398  
H        H      0.439800000000     0.074900000000     0.332800000000     0.0565398  
H        H      0.560200000000     0.574900000000     0.667200000000     0.0565398  
H        H      0.894400000000     0.044800000000     0.908700000000     0.0565398  
H        H      0.105600000000     0.544800000000     0.091300000000     0.0565398  
H        H      0.605600000000     0.044800000000     0.408700000000     0.0565398  
H        H      0.394400000000     0.544800000000     0.591300000000     0.0565398  
H        H      0.389100000000     0.110600000000     0.071000000000     0.0565398  
H        H      0.610900000000     0.610600000000     0.929000000000     0.0565398  
H        H      0.110900000000     0.110600000000     0.571000000000     0.0565398  
H        H      0.889100000000     0.610600000000     0.429000000000     0.0565398  
H        H      0.255500000000     0.180500000000     0.882700000000     0.0565398  
H        H      0.744500000000     0.680500000000     0.117300000000     0.0565398  
H        H      0.244500000000     0.180500000000     0.382700000000     0.0565398  
H        H      0.755500000000     0.680500000000     0.617300000000     0.0565398  
H        H      0.376300000000     0.040700000000     0.868100000000     0.0565398  
H        H      0.623700000000     0.540700000000     0.131900000000     0.0565398  
H        H      0.123700000000     0.040700000000     0.368100000000     0.0565398  
H        H      0.876300000000     0.540700000000     0.631900000000     0.0565398  
H        H      0.239500000000     0.301600000000     0.992700000000     0.0565398  
H        H      0.760500000000     0.801600000000     0.007300000000     0.0565398  
H        H      0.260500000000     0.301600000000     0.492700000000     0.0565398  
H        H      0.739500000000     0.801600000000     0.507300000000     0.0565398  
H        H      0.279800000000     0.264900000000     0.067900000000     0.0565398  
H        H      0.720200000000     0.764900000000     0.932100000000     0.0565398  
H        H      0.220200000000     0.264900000000     0.567900000000     0.0565398  
H        H      0.779800000000     0.764900000000     0.432100000000     0.0565398  
H        H      0.064900000000     0.350300000000     0.075300000000     0.0565398  
H        H      0.935100000000     0.850300000000     0.924700000000     0.0565398  
H        H      0.435100000000     0.350300000000     0.575300000000     0.0565398  
H        H      0.564900000000     0.850300000000     0.424700000000     0.0565398  
H        H      0.865400000000     0.321300000000     0.109700000000     0.0565398  
H        H      0.134600000000     0.821300000000     0.890300000000     0.0565398  
H        H      0.634600000000     0.321300000000     0.609700000000     0.0565398  
H        H      0.365400000000     0.821300000000     0.390300000000     0.0565398  
H        H      0.903900000000     0.062700000000     0.041700000000     0.0565398  
H        H      0.096100000000     0.562700000000     0.958300000000     0.0565398  
H        H      0.596100000000     0.062700000000     0.541700000000     0.0565398  
H        H      0.403900000000     0.562700000000     0.458300000000     0.0565398  
H        H      0.103700000000     0.093000000000     0.011500000000     0.0565398  
H        H      0.896300000000     0.593000000000     0.988500000000     0.0565398  
H        H      0.396300000000     0.093000000000     0.511500000000     0.0565398  
H        H      0.603700000000     0.593000000000     0.488500000000     0.0565398  
C        C      0.873000000000     0.942800000000     0.641090000000     0.00930689 
C        C      0.127000000000     0.442800000000     0.358910000000     0.00930689 
C        C      0.627000000000     0.942800000000     0.141090000000     0.00930689 
C        C      0.373000000000     0.442800000000     0.858910000000     0.00930689 
C        C      0.730900000000     0.169000000000     0.096600000000     0.00930689 
C        C      0.269100000000     0.669000000000     0.903400000000     0.00930689 
C        C      0.769100000000     0.169000000000     0.596600000000     0.00930689 
C        C      0.230900000000     0.669000000000     0.403400000000     0.00930689 
C        C      0.586800000000     0.296100000000     0.065910000000     0.00930689 
C        C      0.413200000000     0.796100000000     0.934090000000     0.00930689 
C        C      0.913200000000     0.296100000000     0.565910000000     0.00930689 
C        C      0.086800000000     0.796100000000     0.434090000000     0.00930689 
C        C      0.562900000000     0.274400000000     0.953380000000     0.00930689 
C        C      0.437100000000     0.774400000000     0.046620000000     0.00930689 
C        C      0.937100000000     0.274400000000     0.453380000000     0.00930689 
C        C      0.062900000000     0.774400000000     0.546620000000     0.00930689 
C        C      0.634900000000     0.205000000000     0.978170000000     0.00930689 
C        C      0.365100000000     0.705000000000     0.021830000000     0.00930689 
C        C      0.865100000000     0.205000000000     0.478170000000     0.00930689 
C        C      0.134900000000     0.705000000000     0.521830000000     0.00930689 
C        C      0.680700000000     0.967000000000     0.883370000000     0.00930689 
C        C      0.319300000000     0.467000000000     0.116630000000     0.00930689 
C        C      0.819300000000     0.967000000000     0.383370000000     0.00930689 
C        C      0.180700000000     0.467000000000     0.616630000000     0.00930689 
C        C      0.785800000000     0.986600000000     0.834860000000     0.00930689 
C        C      0.214200000000     0.486600000000     0.165140000000     0.00930689 
C        C      0.714200000000     0.986600000000     0.334860000000     0.00930689 
C        C      0.285800000000     0.486600000000     0.665140000000     0.00930689 
C        C      0.782400000000     0.958000000000     0.764610000000     0.00930689 
C        C      0.217600000000     0.458000000000     0.235390000000     0.00930689 
C        C      0.717600000000     0.958000000000     0.264610000000     0.00930689 
C        C      0.282400000000     0.458000000000     0.735390000000     0.00930689 
C        C      0.879800000000     0.974200000000     0.718230000000     0.00930689 
C        C      0.120200000000     0.474200000000     0.281770000000     0.00930689 
C        C      0.620200000000     0.974200000000     0.218230000000     0.00930689 
C        C      0.379800000000     0.474200000000     0.781770000000     0.00930689 
C        C      0.982200000000     0.018000000000     0.743780000000     0.00930689 
C        C      0.017800000000     0.518000000000     0.256220000000     0.00930689 
C        C      0.517800000000     0.018000000000     0.243780000000     0.00930689 
C        C      0.482200000000     0.518000000000     0.756220000000     0.00930689 
C        C      0.990400000000     0.045700000000     0.815680000000     0.00930689 
C        C      0.009600000000     0.545700000000     0.184320000000     0.00930689 
C        C      0.509600000000     0.045700000000     0.315680000000     0.00930689 
C        C      0.490400000000     0.545700000000     0.684320000000     0.00930689 
C        C      0.890300000000     0.028200000000     0.860830000000     0.00930689 
C        C      0.109700000000     0.528200000000     0.139170000000     0.00930689 
C        C      0.609700000000     0.028200000000     0.360830000000     0.00930689 
C        C      0.390300000000     0.528200000000     0.639170000000     0.00930689 
C        C      0.371500000000     0.110500000000     0.022380000000     0.00930689 
C        C      0.628500000000     0.610500000000     0.977620000000     0.00930689 
C        C      0.128500000000     0.110500000000     0.522380000000     0.00930689 
C        C      0.871500000000     0.610500000000     0.477620000000     0.00930689 
C        C      0.297200000000     0.149200000000     0.918430000000     0.00930689 
C        C      0.702800000000     0.649200000000     0.081570000000     0.00930689 
C        C      0.202800000000     0.149200000000     0.418430000000     0.00930689 
C        C      0.797200000000     0.649200000000     0.581570000000     0.00930689 
C        C      0.364400000000     0.072100000000     0.910680000000     0.00930689 
C        C      0.635600000000     0.572100000000     0.089320000000     0.00930689 
C        C      0.135600000000     0.072100000000     0.410680000000     0.00930689 
C        C      0.864400000000     0.572100000000     0.589320000000     0.00930689 
C        C      0.237700000000     0.248800000000     0.024000000000     0.00930689 
C        C      0.762300000000     0.748800000000     0.976000000000     0.00930689 
C        C      0.262300000000     0.248800000000     0.524000000000     0.00930689 
C        C      0.737700000000     0.748800000000     0.476000000000     0.00930689 
C        C      0.105500000000     0.224800000000     0.040810000000     0.00930689 
C        C      0.894500000000     0.724800000000     0.959190000000     0.00930689 
C        C      0.394500000000     0.224800000000     0.540810000000     0.00930689 
C        C      0.605500000000     0.724800000000     0.459190000000     0.00930689 
C        C      0.032600000000     0.292000000000     0.069310000000     0.00930689 
C        C      0.967400000000     0.792000000000     0.930690000000     0.00930689 
C        C      0.467400000000     0.292000000000     0.569310000000     0.00930689 
C        C      0.532600000000     0.792000000000     0.430690000000     0.00930689 
C        C      0.912600000000     0.275400000000     0.089300000000     0.00930689 
C        C      0.087400000000     0.775400000000     0.910700000000     0.00930689 
C        C      0.587400000000     0.275400000000     0.589300000000     0.00930689 
C        C      0.412600000000     0.775400000000     0.410700000000     0.00930689 
C        C      0.863000000000     0.187800000000     0.078300000000     0.00930689 
C        C      0.137000000000     0.687800000000     0.921700000000     0.00930689 
C        C      0.637000000000     0.187800000000     0.578300000000     0.00930689 
C        C      0.363000000000     0.687800000000     0.421700000000     0.00930689 
C        C      0.935900000000     0.120700000000     0.049110000000     0.00930689 
C        C      0.064100000000     0.620700000000     0.950890000000     0.00930689 
C        C      0.564100000000     0.120700000000     0.549110000000     0.00930689 
C        C      0.435900000000     0.620700000000     0.450890000000     0.00930689 
C        C      0.055500000000     0.139100000000     0.030900000000     0.00930689 
C        C      0.944500000000     0.639100000000     0.969100000000     0.00930689 
C        C      0.444500000000     0.139100000000     0.530900000000     0.00930689 
C        C      0.555500000000     0.639100000000     0.469100000000     0.00930689 
N        N      0.533300000000     0.330600000000     0.009680000000    -0.130003   
N        N      0.466700000000     0.830600000000     0.990320000000    -0.130003   
N        N      0.966700000000     0.330600000000     0.509680000000    -0.130003   
N        N      0.033300000000     0.830600000000     0.490320000000    -0.130003   
N        N      0.649600000000     0.219740000000     0.050190000000    -0.130003   
N        N      0.350400000000     0.719740000000     0.949810000000    -0.130003   
N        N      0.850400000000     0.219740000000     0.550190000000    -0.130003   
N        N      0.149600000000     0.719740000000     0.449810000000    -0.130003   
N        N      0.411900000000     0.048000000000     0.975190000000    -0.130003   
N        N      0.588100000000     0.548000000000     0.024810000000    -0.130003   
N        N      0.088100000000     0.048000000000     0.475190000000    -0.130003   
N        N      0.911900000000     0.548000000000     0.524810000000    -0.130003   
N        N      0.302900000000     0.171900000000     0.988990000000    -0.130003   
N        N      0.697100000000     0.671900000000     0.011010000000    -0.130003   
N        N      0.197100000000     0.171900000000     0.488990000000    -0.130003   
N        N      0.802900000000     0.671900000000     0.511010000000    -0.130003   
O        O      0.581900000000     0.935090000000     0.858560000000    -0.281599   
O        O      0.418100000000     0.435090000000     0.141440000000    -0.281599   
O        O      0.918100000000     0.935090000000     0.358560000000    -0.281599   
O        O      0.081900000000     0.435090000000     0.641440000000    -0.281599   
O        O      0.951860000000     0.979520000000     0.600440000000    -0.281599   
O        O      0.048140000000     0.479520000000     0.399560000000    -0.281599   
O        O      0.548140000000     0.979520000000     0.100440000000    -0.281599   
O        O      0.451860000000     0.479520000000     0.899560000000    -0.281599   
O        O      0.796300000000     0.887800000000     0.622810000000    -0.281599   
O        O      0.203700000000     0.387800000000     0.377190000000    -0.281599   
O        O      0.703700000000     0.887800000000     0.122810000000    -0.281599   
O        O      0.296300000000     0.387800000000     0.877190000000    -0.281599   
O        O      0.696190000000     0.982970000000     0.950290000000    -0.281599   
O        O      0.303810000000     0.482970000000     0.049710000000    -0.281599   
O        O      0.803810000000     0.982970000000     0.450290000000    -0.281599   
O        O      0.196190000000     0.482970000000     0.549710000000    -0.281599   


