data_YARGAB_original

_audit_creation_method RASPA-1.0
_audit_creation_date 2022-1-30
_audit_author_name 'Felipe Lopes de Oliveira <felipe.lopes.oliveira@ibm.com>'

_cell_length_a    15.578
_cell_length_b    15.578
_cell_length_c    16.521
_cell_angle_alpha 90
_cell_angle_beta  90
_cell_angle_gamma 120
_cell_volume      3472.09

_symmetry_cell_setting          triclinic
_symmetry_space_group_name_Hall 'P 1'
_symmetry_space_group_name_H-M  'P 1'
_symmetry_Int_Tables_number     1

_symmetry_equiv_pos_as_xyz 'x,y,z'

loop_
_atom_site_label
_atom_site_type_symbol
_atom_site_fract_x
_atom_site_fract_y
_atom_site_fract_z
_atom_site_charge
Zn       Zn     0.259080000000     0.518160000000     0.750000000000     0.486282   
Zn       Zn     0.259080000000     0.740920000000     0.750000000000     0.486282   
Zn       Zn     0.481840000000     0.740920000000     0.750000000000     0.486282   
Zn       Zn     0.740920000000     0.481840000000     0.250000000000     0.486282   
Zn       Zn     0.740920000000     0.259080000000     0.250000000000     0.486282   
Zn       Zn     0.518160000000     0.259080000000     0.250000000000     0.486282   
H        H      0.692000000000     0.453900000000     0.478000000000     0.0594273  
H        H      0.766400000000     0.481600000000     0.602400000000     0.0594273  
H        H      0.710600000000     0.541100000000     0.711500000000     0.0594273  
H        H      0.577600000000     0.564300000000     0.695000000000     0.0594273  
H        H      0.761900000000     0.308000000000     0.478000000000     0.0594273  
H        H      0.715200000000     0.233600000000     0.602400000000     0.0594273  
H        H      0.830500000000     0.289400000000     0.711500000000     0.0594273  
H        H      0.986700000000     0.422400000000     0.695000000000     0.0594273  
H        H      0.546100000000     0.238100000000     0.478000000000     0.0594273  
H        H      0.518400000000     0.284800000000     0.602400000000     0.0594273  
H        H      0.458900000000     0.169500000000     0.711500000000     0.0594273  
H        H      0.435700000000     0.013300000000     0.695000000000     0.0594273  
H        H      0.761900000000     0.453900000000     0.022000000000     0.0594273  
H        H      0.715200000000     0.481600000000     0.897600000000     0.0594273  
H        H      0.830500000000     0.541100000000     0.788500000000     0.0594273  
H        H      0.986700000000     0.564300000000     0.805000000000     0.0594273  
H        H      0.546100000000     0.308000000000     0.022000000000     0.0594273  
H        H      0.518400000000     0.233600000000     0.897600000000     0.0594273  
H        H      0.458900000000     0.289400000000     0.788500000000     0.0594273  
H        H      0.435700000000     0.422400000000     0.805000000000     0.0594273  
H        H      0.692000000000     0.238100000000     0.022000000000     0.0594273  
H        H      0.766400000000     0.284800000000     0.897600000000     0.0594273  
H        H      0.710600000000     0.169500000000     0.788500000000     0.0594273  
H        H      0.577600000000     0.013300000000     0.805000000000     0.0594273  
H        H      0.308000000000     0.546100000000     0.522000000000     0.0594273  
H        H      0.233600000000     0.518400000000     0.397600000000     0.0594273  
H        H      0.289400000000     0.458900000000     0.288500000000     0.0594273  
H        H      0.422400000000     0.435700000000     0.305000000000     0.0594273  
H        H      0.238100000000     0.692000000000     0.522000000000     0.0594273  
H        H      0.284800000000     0.766400000000     0.397600000000     0.0594273  
H        H      0.169500000000     0.710600000000     0.288500000000     0.0594273  
H        H      0.013300000000     0.577600000000     0.305000000000     0.0594273  
H        H      0.453900000000     0.761900000000     0.522000000000     0.0594273  
H        H      0.481600000000     0.715200000000     0.397600000000     0.0594273  
H        H      0.541100000000     0.830500000000     0.288500000000     0.0594273  
H        H      0.564300000000     0.986700000000     0.305000000000     0.0594273  
H        H      0.238100000000     0.546100000000     0.978000000000     0.0594273  
H        H      0.284800000000     0.518400000000     0.102400000000     0.0594273  
H        H      0.169500000000     0.458900000000     0.211500000000     0.0594273  
H        H      0.013300000000     0.435700000000     0.195000000000     0.0594273  
H        H      0.453900000000     0.692000000000     0.978000000000     0.0594273  
H        H      0.481600000000     0.766400000000     0.102400000000     0.0594273  
H        H      0.541100000000     0.710600000000     0.211500000000     0.0594273  
H        H      0.564300000000     0.577600000000     0.195000000000     0.0594273  
H        H      0.308000000000     0.761900000000     0.978000000000     0.0594273  
H        H      0.233600000000     0.715200000000     0.102400000000     0.0594273  
H        H      0.289400000000     0.830500000000     0.211500000000     0.0594273  
H        H      0.422400000000     0.986700000000     0.195000000000     0.0594273  
C        C      0.433500000000     0.572700000000     0.634620000000     0.01575    
C        C      0.466900000000     0.534800000000     0.564690000000     0.01575    
C        C      0.549100000000     0.521700000000     0.575470000000     0.01575    
C        C      0.582400000000     0.485900000000     0.509440000000     0.01575    
C        C      0.667000000000     0.474500000000     0.521830000000     0.01575    
C        C      0.712000000000     0.492300000000     0.594800000000     0.01575    
C        C      0.677900000000     0.527400000000     0.660700000000     0.01575    
C        C      0.599500000000     0.541200000000     0.650700000000     0.01575    
C        C      0.139200000000     0.566500000000     0.634620000000     0.01575    
C        C      0.067900000000     0.533100000000     0.564690000000     0.01575    
C        C      0.972600000000     0.450900000000     0.575470000000     0.01575    
C        C      0.903500000000     0.417600000000     0.509440000000     0.01575    
C        C      0.807500000000     0.333000000000     0.521830000000     0.01575    
C        C      0.780300000000     0.288000000000     0.594800000000     0.01575    
C        C      0.849500000000     0.322100000000     0.660700000000     0.01575    
C        C      0.941700000000     0.400500000000     0.650700000000     0.01575    
C        C      0.427300000000     0.860800000000     0.634620000000     0.01575    
C        C      0.465200000000     0.932100000000     0.564690000000     0.01575    
C        C      0.478300000000     0.027400000000     0.575470000000     0.01575    
C        C      0.514100000000     0.096500000000     0.509440000000     0.01575    
C        C      0.525500000000     0.192500000000     0.521830000000     0.01575    
C        C      0.507700000000     0.219700000000     0.594800000000     0.01575    
C        C      0.472600000000     0.150500000000     0.660700000000     0.01575    
C        C      0.458800000000     0.058300000000     0.650700000000     0.01575    
C        C      0.139200000000     0.572700000000     0.865380000000     0.01575    
C        C      0.067900000000     0.534800000000     0.935310000000     0.01575    
C        C      0.972600000000     0.521700000000     0.924530000000     0.01575    
C        C      0.903500000000     0.485900000000     0.990560000000     0.01575    
C        C      0.807500000000     0.474500000000     0.978170000000     0.01575    
C        C      0.780300000000     0.492300000000     0.905200000000     0.01575    
C        C      0.849500000000     0.527400000000     0.839300000000     0.01575    
C        C      0.941700000000     0.541200000000     0.849300000000     0.01575    
C        C      0.427300000000     0.566500000000     0.865380000000     0.01575    
C        C      0.465200000000     0.533100000000     0.935310000000     0.01575    
C        C      0.478300000000     0.450900000000     0.924530000000     0.01575    
C        C      0.514100000000     0.417600000000     0.990560000000     0.01575    
C        C      0.525500000000     0.333000000000     0.978170000000     0.01575    
C        C      0.507700000000     0.288000000000     0.905200000000     0.01575    
C        C      0.472600000000     0.322100000000     0.839300000000     0.01575    
C        C      0.458800000000     0.400500000000     0.849300000000     0.01575    
C        C      0.433500000000     0.860800000000     0.865380000000     0.01575    
C        C      0.466900000000     0.932100000000     0.935310000000     0.01575    
C        C      0.549100000000     0.027400000000     0.924530000000     0.01575    
C        C      0.582400000000     0.096500000000     0.990560000000     0.01575    
C        C      0.667000000000     0.192500000000     0.978170000000     0.01575    
C        C      0.712000000000     0.219700000000     0.905200000000     0.01575    
C        C      0.677900000000     0.150500000000     0.839300000000     0.01575    
C        C      0.599500000000     0.058300000000     0.849300000000     0.01575    
C        C      0.566500000000     0.427300000000     0.365380000000     0.01575    
C        C      0.533100000000     0.465200000000     0.435310000000     0.01575    
C        C      0.450900000000     0.478300000000     0.424530000000     0.01575    
C        C      0.417600000000     0.514100000000     0.490560000000     0.01575    
C        C      0.333000000000     0.525500000000     0.478170000000     0.01575    
C        C      0.288000000000     0.507700000000     0.405200000000     0.01575    
C        C      0.322100000000     0.472600000000     0.339300000000     0.01575    
C        C      0.400500000000     0.458800000000     0.349300000000     0.01575    
C        C      0.860800000000     0.433500000000     0.365380000000     0.01575    
C        C      0.932100000000     0.466900000000     0.435310000000     0.01575    
C        C      0.027400000000     0.549100000000     0.424530000000     0.01575    
C        C      0.096500000000     0.582400000000     0.490560000000     0.01575    
C        C      0.192500000000     0.667000000000     0.478170000000     0.01575    
C        C      0.219700000000     0.712000000000     0.405200000000     0.01575    
C        C      0.150500000000     0.677900000000     0.339300000000     0.01575    
C        C      0.058300000000     0.599500000000     0.349300000000     0.01575    
C        C      0.572700000000     0.139200000000     0.365380000000     0.01575    
C        C      0.534800000000     0.067900000000     0.435310000000     0.01575    
C        C      0.521700000000     0.972600000000     0.424530000000     0.01575    
C        C      0.485900000000     0.903500000000     0.490560000000     0.01575    
C        C      0.474500000000     0.807500000000     0.478170000000     0.01575    
C        C      0.492300000000     0.780300000000     0.405200000000     0.01575    
C        C      0.527400000000     0.849500000000     0.339300000000     0.01575    
C        C      0.541200000000     0.941700000000     0.349300000000     0.01575    
C        C      0.860800000000     0.427300000000     0.134620000000     0.01575    
C        C      0.932100000000     0.465200000000     0.064690000000     0.01575    
C        C      0.027400000000     0.478300000000     0.075470000000     0.01575    
C        C      0.096500000000     0.514100000000     0.009440000000     0.01575    
C        C      0.192500000000     0.525500000000     0.021830000000     0.01575    
C        C      0.219700000000     0.507700000000     0.094800000000     0.01575    
C        C      0.150500000000     0.472600000000     0.160700000000     0.01575    
C        C      0.058300000000     0.458800000000     0.150700000000     0.01575    
C        C      0.572700000000     0.433500000000     0.134620000000     0.01575    
C        C      0.534800000000     0.466900000000     0.064690000000     0.01575    
C        C      0.521700000000     0.549100000000     0.075470000000     0.01575    
C        C      0.485900000000     0.582400000000     0.009440000000     0.01575    
C        C      0.474500000000     0.667000000000     0.021830000000     0.01575    
C        C      0.492300000000     0.712000000000     0.094800000000     0.01575    
C        C      0.527400000000     0.677900000000     0.160700000000     0.01575    
C        C      0.541200000000     0.599500000000     0.150700000000     0.01575    
C        C      0.566500000000     0.139200000000     0.134620000000     0.01575    
C        C      0.533100000000     0.067900000000     0.064690000000     0.01575    
C        C      0.450900000000     0.972600000000     0.075470000000     0.01575    
C        C      0.417600000000     0.903500000000     0.009440000000     0.01575    
C        C      0.333000000000     0.807500000000     0.021830000000     0.01575    
C        C      0.288000000000     0.780300000000     0.094800000000     0.01575    
C        C      0.322100000000     0.849500000000     0.160700000000     0.01575    
C        C      0.400500000000     0.941700000000     0.150700000000     0.01575    
O        O      0.360170000000     0.507690000000     0.674650000000    -0.280085   
O        O      0.481350000000     0.664420000000     0.647340000000    -0.280085   
O        O      0.147520000000     0.639830000000     0.674650000000    -0.280085   
O        O      0.183070000000     0.518650000000     0.647340000000    -0.280085   
O        O      0.492310000000     0.852480000000     0.674650000000    -0.280085   
O        O      0.335580000000     0.816930000000     0.647340000000    -0.280085   
O        O      0.147520000000     0.507690000000     0.825350000000    -0.280085   
O        O      0.183070000000     0.664420000000     0.852660000000    -0.280085   
O        O      0.492310000000     0.639830000000     0.825350000000    -0.280085   
O        O      0.335580000000     0.518650000000     0.852660000000    -0.280085   
O        O      0.360170000000     0.852480000000     0.825350000000    -0.280085   
O        O      0.481350000000     0.816930000000     0.852660000000    -0.280085   
O        O      0.639830000000     0.492310000000     0.325350000000    -0.280085   
O        O      0.518650000000     0.335580000000     0.352660000000    -0.280085   
O        O      0.852480000000     0.360170000000     0.325350000000    -0.280085   
O        O      0.816930000000     0.481350000000     0.352660000000    -0.280085   
O        O      0.507690000000     0.147520000000     0.325350000000    -0.280085   
O        O      0.664420000000     0.183070000000     0.352660000000    -0.280085   
O        O      0.852480000000     0.492310000000     0.174650000000    -0.280085   
O        O      0.816930000000     0.335580000000     0.147340000000    -0.280085   
O        O      0.507690000000     0.360170000000     0.174650000000    -0.280085   
O        O      0.664420000000     0.481350000000     0.147340000000    -0.280085   
O        O      0.639830000000     0.147520000000     0.174650000000    -0.280085   
O        O      0.518650000000     0.183070000000     0.147340000000    -0.280085   
O        O      0.333330000000     0.666660000000     0.750000000000    -0.280085   
O        O      0.666670000000     0.333340000000     0.250000000000    -0.280085   


