data_YARKEJ_original

_audit_creation_method RASPA-1.0
_audit_creation_date 2022-1-29
_audit_author_name 'Felipe Lopes de Oliveira <felipe.lopes.oliveira@ibm.com>'

_cell_length_a    12.0995
_cell_length_b    14.0077
_cell_length_c    14.0077
_cell_angle_alpha 82.4538
_cell_angle_beta  79.917
_cell_angle_gamma 79.9168
_cell_volume      2288.9

_symmetry_cell_setting          triclinic
_symmetry_space_group_name_Hall 'P 1'
_symmetry_space_group_name_H-M  'P 1'
_symmetry_Int_Tables_number     1

_symmetry_equiv_pos_as_xyz 'x,y,z'

loop_
_atom_site_label
_atom_site_type_symbol
_atom_site_fract_x
_atom_site_fract_y
_atom_site_fract_z
_atom_site_charge
Zn       Zn     0.100650000000     0.230150000000     0.183910000000     0.426651   
Zn       Zn     0.399350000000     0.816090000000     0.769850000000     0.426651   
Zn       Zn     0.899350000000     0.769850000000     0.816090000000     0.426651   
Zn       Zn     0.600650000000     0.183910000000     0.230150000000     0.426651   
H        H      0.035800000000     0.338100000000     0.846700000000     0.0701657  
H        H      0.944300000000     0.323300000000     0.718700000000     0.0701657  
H        H      0.681900000000     0.241000000000     0.907400000000     0.0701657  
H        H      0.877500000000     0.344500000000     0.230500000000     0.0701657  
H        H      0.773700000000     0.439000000000     0.344600000000     0.0701657  
H        H      0.004000000000     0.344400000000     0.518000000000     0.0701657  
H        H      0.108400000000     0.255000000000     0.396000000000     0.0701657  
H        H      0.835000000000     0.440300000000     0.583500000000     0.0701657  
H        H      0.834200000000     0.530900000000     0.505500000000     0.0701657  
H        H      0.342000000000     0.207300000000     0.089900000000     0.0701657  
H        H      0.486100000000     0.296500000000     0.038900000000     0.0701657  
H        H      0.281600000000     0.527200000000     0.140800000000     0.0701657  
H        H      0.140600000000     0.434500000000     0.185500000000     0.0701657  
H        H      0.480200000000     0.541100000000     0.088500000000     0.0701657  
H        H      0.566900000000     0.446300000000     0.066700000000     0.0701657  
H        H      0.464200000000     0.153300000000     0.661900000000     0.0701657  
H        H      0.555700000000     0.281300000000     0.676700000000     0.0701657  
H        H      0.818100000000     0.092600000000     0.759000000000     0.0701657  
H        H      0.622500000000     0.769500000000     0.655500000000     0.0701657  
H        H      0.726300000000     0.655400000000     0.561000000000     0.0701657  
H        H      0.496000000000     0.482000000000     0.655600000000     0.0701657  
H        H      0.391600000000     0.604000000000     0.745000000000     0.0701657  
H        H      0.665000000000     0.416500000000     0.559700000000     0.0701657  
H        H      0.665800000000     0.494500000000     0.469100000000     0.0701657  
H        H      0.158000000000     0.910100000000     0.792700000000     0.0701657  
H        H      0.013900000000     0.961100000000     0.703500000000     0.0701657  
H        H      0.218400000000     0.859200000000     0.472800000000     0.0701657  
H        H      0.359400000000     0.814500000000     0.565500000000     0.0701657  
H        H      0.019800000000     0.911500000000     0.458900000000     0.0701657  
H        H      0.933100000000     0.933300000000     0.553700000000     0.0701657  
H        H      0.964200000000     0.661900000000     0.153300000000     0.0701657  
H        H      0.055700000000     0.676700000000     0.281300000000     0.0701657  
H        H      0.318100000000     0.759000000000     0.092600000000     0.0701657  
H        H      0.122500000000     0.655500000000     0.769500000000     0.0701657  
H        H      0.226300000000     0.561000000000     0.655400000000     0.0701657  
H        H      0.996000000000     0.655600000000     0.482000000000     0.0701657  
H        H      0.891600000000     0.745000000000     0.604000000000     0.0701657  
H        H      0.165000000000     0.559700000000     0.416500000000     0.0701657  
H        H      0.165800000000     0.469100000000     0.494500000000     0.0701657  
H        H      0.658000000000     0.792700000000     0.910100000000     0.0701657  
H        H      0.513900000000     0.703500000000     0.961100000000     0.0701657  
H        H      0.718400000000     0.472800000000     0.859200000000     0.0701657  
H        H      0.859400000000     0.565500000000     0.814500000000     0.0701657  
H        H      0.519800000000     0.458900000000     0.911500000000     0.0701657  
H        H      0.433100000000     0.553700000000     0.933300000000     0.0701657  
H        H      0.535800000000     0.846700000000     0.338100000000     0.0701657  
H        H      0.444300000000     0.718700000000     0.323300000000     0.0701657  
H        H      0.181900000000     0.907400000000     0.241000000000     0.0701657  
H        H      0.377500000000     0.230500000000     0.344500000000     0.0701657  
H        H      0.273700000000     0.344600000000     0.439000000000     0.0701657  
H        H      0.504000000000     0.518000000000     0.344400000000     0.0701657  
H        H      0.608400000000     0.396000000000     0.255000000000     0.0701657  
H        H      0.335000000000     0.583500000000     0.440300000000     0.0701657  
H        H      0.334200000000     0.505500000000     0.530900000000     0.0701657  
H        H      0.842000000000     0.089900000000     0.207300000000     0.0701657  
H        H      0.986100000000     0.038900000000     0.296500000000     0.0701657  
H        H      0.781600000000     0.140800000000     0.527200000000     0.0701657  
H        H      0.640600000000     0.185500000000     0.434500000000     0.0701657  
H        H      0.980200000000     0.088500000000     0.541100000000     0.0701657  
H        H      0.066900000000     0.066700000000     0.446300000000     0.0701657  
C        C      0.807800000000     0.268740000000     0.972940000000     0.00529527 
C        C      0.914600000000     0.296200000000     0.955000000000     0.00529527 
C        C      0.965100000000     0.317700000000     0.859300000000     0.00529527 
C        C      0.910200000000     0.309000000000     0.782600000000     0.00529527 
C        C      0.806000000000     0.279170000000     0.800970000000     0.00529527 
C        C      0.753500000000     0.259980000000     0.895380000000     0.00529527 
C        C      0.741800000000     0.261730000000     0.073530000000     0.00529527 
C        C      0.981600000000     0.300900000000     0.034700000000     0.00529527 
C        C      0.905400000000     0.345500000000     0.288100000000     0.00529527 
C        C      0.841900000000     0.401400000000     0.357200000000     0.00529527 
C        C      0.877200000000     0.402800000000     0.445200000000     0.00529527 
C        C      0.977000000000     0.346900000000     0.459300000000     0.00529527 
C        C      0.039600000000     0.292840000000     0.385240000000     0.00529527 
C        C      0.811800000000     0.466800000000     0.521200000000     0.00529527 
C        C      0.329100000000     0.272900000000     0.099900000000     0.00529527 
C        C      0.416600000000     0.325900000000     0.070100000000     0.00529527 
C        C      0.401100000000     0.423300000000     0.086700000000     0.00529527 
C        C      0.296200000000     0.461900000000     0.129500000000     0.00529527 
C        C      0.211500000000     0.405600000000     0.156400000000     0.00529527 
C        C      0.495300000000     0.484300000000     0.052700000000     0.00529527 
C        C      0.692200000000     0.027060000000     0.731260000000     0.00529527 
C        C      0.585400000000     0.045000000000     0.703800000000     0.00529527 
C        C      0.534900000000     0.140700000000     0.682300000000     0.00529527 
C        C      0.589800000000     0.217400000000     0.691000000000     0.00529527 
C        C      0.694000000000     0.199030000000     0.720830000000     0.00529527 
C        C      0.746500000000     0.104620000000     0.740020000000     0.00529527 
C        C      0.758200000000     0.926470000000     0.738270000000     0.00529527 
C        C      0.518400000000     0.965300000000     0.699100000000     0.00529527 
C        C      0.594600000000     0.711900000000     0.654500000000     0.00529527 
C        C      0.658100000000     0.642800000000     0.598600000000     0.00529527 
C        C      0.622800000000     0.554800000000     0.597200000000     0.00529527 
C        C      0.523000000000     0.540700000000     0.653100000000     0.00529527 
C        C      0.460400000000     0.614760000000     0.707160000000     0.00529527 
C        C      0.688200000000     0.478800000000     0.533200000000     0.00529527 
C        C      0.170900000000     0.900100000000     0.727100000000     0.00529527 
C        C      0.083400000000     0.929900000000     0.674100000000     0.00529527 
C        C      0.098900000000     0.913300000000     0.576700000000     0.00529527 
C        C      0.203800000000     0.870500000000     0.538100000000     0.00529527 
C        C      0.288500000000     0.843600000000     0.594400000000     0.00529527 
C        C      0.004700000000     0.947300000000     0.515700000000     0.00529527 
C        C      0.192200000000     0.731260000000     0.027060000000     0.00529527 
C        C      0.085400000000     0.703800000000     0.045000000000     0.00529527 
C        C      0.034900000000     0.682300000000     0.140700000000     0.00529527 
C        C      0.089800000000     0.691000000000     0.217400000000     0.00529527 
C        C      0.194000000000     0.720830000000     0.199030000000     0.00529527 
C        C      0.246500000000     0.740020000000     0.104620000000     0.00529527 
C        C      0.258200000000     0.738270000000     0.926470000000     0.00529527 
C        C      0.018400000000     0.699100000000     0.965300000000     0.00529527 
C        C      0.094600000000     0.654500000000     0.711900000000     0.00529527 
C        C      0.158100000000     0.598600000000     0.642800000000     0.00529527 
C        C      0.122800000000     0.597200000000     0.554800000000     0.00529527 
C        C      0.023000000000     0.653100000000     0.540700000000     0.00529527 
C        C      0.960400000000     0.707160000000     0.614760000000     0.00529527 
C        C      0.188200000000     0.533200000000     0.478800000000     0.00529527 
C        C      0.670900000000     0.727100000000     0.900100000000     0.00529527 
C        C      0.583400000000     0.674100000000     0.929900000000     0.00529527 
C        C      0.598900000000     0.576700000000     0.913300000000     0.00529527 
C        C      0.703800000000     0.538100000000     0.870500000000     0.00529527 
C        C      0.788500000000     0.594400000000     0.843600000000     0.00529527 
C        C      0.504700000000     0.515700000000     0.947300000000     0.00529527 
C        C      0.307800000000     0.972940000000     0.268740000000     0.00529527 
C        C      0.414600000000     0.955000000000     0.296200000000     0.00529527 
C        C      0.465100000000     0.859300000000     0.317700000000     0.00529527 
C        C      0.410200000000     0.782600000000     0.309000000000     0.00529527 
C        C      0.306000000000     0.800970000000     0.279170000000     0.00529527 
C        C      0.253500000000     0.895380000000     0.259980000000     0.00529527 
C        C      0.241800000000     0.073530000000     0.261730000000     0.00529527 
C        C      0.481600000000     0.034700000000     0.300900000000     0.00529527 
C        C      0.405400000000     0.288100000000     0.345500000000     0.00529527 
C        C      0.341900000000     0.357200000000     0.401400000000     0.00529527 
C        C      0.377200000000     0.445200000000     0.402800000000     0.00529527 
C        C      0.477000000000     0.459300000000     0.346900000000     0.00529527 
C        C      0.539600000000     0.385240000000     0.292840000000     0.00529527 
C        C      0.311800000000     0.521200000000     0.466800000000     0.00529527 
C        C      0.829100000000     0.099900000000     0.272900000000     0.00529527 
C        C      0.916600000000     0.070100000000     0.325900000000     0.00529527 
C        C      0.901100000000     0.086700000000     0.423300000000     0.00529527 
C        C      0.796200000000     0.129500000000     0.461900000000     0.00529527 
C        C      0.711500000000     0.156400000000     0.405600000000     0.00529527 
C        C      0.995300000000     0.052700000000     0.484300000000     0.00529527 
N        N      0.004800000000     0.292920000000     0.299720000000    -0.182039   
N        N      0.226400000000     0.311300000000     0.142660000000    -0.182039   
N        N      0.495200000000     0.700280000000     0.707080000000    -0.182039   
N        N      0.273600000000     0.857340000000     0.688700000000    -0.182039   
N        N      0.995200000000     0.707080000000     0.700280000000    -0.182039   
N        N      0.773600000000     0.688700000000     0.857340000000    -0.182039   
N        N      0.504800000000     0.299720000000     0.292920000000    -0.182039   
N        N      0.726400000000     0.142660000000     0.311300000000    -0.182039   
O        O      0.678200000000     0.195340000000     0.095000000000    -0.271325   
O        O      0.748200000000     0.318840000000     0.130020000000    -0.271325   
O        O      0.995900000000     0.224750000000     0.093310000000    -0.271325   
O        O      0.016500000000     0.375900000000     0.042100000000    -0.271325   
O        O      0.821800000000     0.905000000000     0.804660000000    -0.271325   
O        O      0.751800000000     0.869980000000     0.681160000000    -0.271325   
O        O      0.504100000000     0.906690000000     0.775250000000    -0.271325   
O        O      0.483500000000     0.957900000000     0.624100000000    -0.271325   
O        O      0.321800000000     0.804660000000     0.905000000000    -0.271325   
O        O      0.251800000000     0.681160000000     0.869980000000    -0.271325   
O        O      0.004100000000     0.775250000000     0.906690000000    -0.271325   
O        O      0.983500000000     0.624100000000     0.957900000000    -0.271325   
O        O      0.178200000000     0.095000000000     0.195340000000    -0.271325   
O        O      0.248200000000     0.130020000000     0.318840000000    -0.271325   
O        O      0.495900000000     0.093310000000     0.224750000000    -0.271325   
O        O      0.516500000000     0.042100000000     0.375900000000    -0.271325   
O        O      0.750000000000     0.278100000000     0.721900000000    -0.271325   
O        O      0.250000000000     0.721900000000     0.278100000000    -0.271325   


