data_YASPEP_original

_audit_creation_method RASPA-1.0
_audit_creation_date 2022-1-30
_audit_author_name 'Felipe Lopes de Oliveira <felipe.lopes.oliveira@ibm.com>'

_cell_length_a    6.277
_cell_length_b    17.702
_cell_length_c    20.486
_cell_angle_alpha 90
_cell_angle_beta  97.565
_cell_angle_gamma 90
_cell_volume      2256.5

_symmetry_cell_setting          triclinic
_symmetry_space_group_name_Hall 'P 1'
_symmetry_space_group_name_H-M  'P 1'
_symmetry_Int_Tables_number     1

_symmetry_equiv_pos_as_xyz 'x,y,z'

loop_
_atom_site_label
_atom_site_type_symbol
_atom_site_fract_x
_atom_site_fract_y
_atom_site_fract_z
_atom_site_charge
Zn       Zn     0.189600000000     0.512750000000     0.776380000000     0.429993   
Zn       Zn     0.310400000000     0.012750000000     0.723620000000     0.429993   
Zn       Zn     0.810400000000     0.487250000000     0.223620000000     0.429993   
Zn       Zn     0.689600000000     0.987250000000     0.276380000000     0.429993   
H        H      0.017400000000     0.791000000000     0.593400000000     0.0818028  
H        H      0.233500000000     0.756900000000     0.515900000000     0.0818028  
H        H      0.564100000000     0.704700000000     0.547200000000     0.0818028  
H        H      0.683000000000     0.687000000000     0.657300000000     0.0818028  
H        H      0.656900000000     0.707000000000     0.769700000000     0.0818028  
H        H      0.468700000000     0.755900000000     0.790700000000     0.0818028  
H        H      0.090900000000     0.753500000000     0.760000000000     0.0818028  
H        H      0.932900000000     0.790600000000     0.703400000000     0.0818028  
H        H      0.735500000000     0.475300000000     0.723200000000     0.0818028  
H        H      0.509000000000     0.476900000000     0.627500000000     0.0818028  
H        H      0.964500000000     0.583800000000     0.543000000000     0.0818028  
H        H      0.178900000000     0.579700000000     0.641800000000     0.0818028  
H        H      0.653100000000     0.539900000000     0.473500000000     0.0818028  
H        H      0.471200000000     0.575300000000     0.508800000000     0.0818028  
H        H      0.017500000000     0.396900000000     0.862900000000     0.0818028  
H        H      0.813000000000     0.387700000000     0.945900000000     0.0818028  
H        H      0.700400000000     0.608400000000     0.931300000000     0.0818028  
H        H      0.918500000000     0.615500000000     0.850700000000     0.0818028  
H        H      0.660900000000     0.528900000000     0.039400000000     0.0818028  
H        H      0.619000000000     0.443400000000     0.024700000000     0.0818028  
H        H      0.482600000000     0.291000000000     0.906600000000     0.0818028  
H        H      0.266500000000     0.256900000000     0.984100000000     0.0818028  
H        H      0.935900000000     0.204700000000     0.952800000000     0.0818028  
H        H      0.817000000000     0.187000000000     0.842700000000     0.0818028  
H        H      0.843100000000     0.207000000000     0.730300000000     0.0818028  
H        H      0.031300000000     0.255900000000     0.709300000000     0.0818028  
H        H      0.409100000000     0.253500000000     0.740000000000     0.0818028  
H        H      0.567100000000     0.290600000000     0.796600000000     0.0818028  
H        H      0.764500000000     0.975300000000     0.776800000000     0.0818028  
H        H      0.991000000000     0.976900000000     0.872500000000     0.0818028  
H        H      0.535500000000     0.083800000000     0.957000000000     0.0818028  
H        H      0.321100000000     0.079700000000     0.858200000000     0.0818028  
H        H      0.846900000000     0.039900000000     0.026500000000     0.0818028  
H        H      0.028800000000     0.075300000000     0.991200000000     0.0818028  
H        H      0.482500000000     0.896900000000     0.637100000000     0.0818028  
H        H      0.687000000000     0.887700000000     0.554100000000     0.0818028  
H        H      0.799600000000     0.108400000000     0.568700000000     0.0818028  
H        H      0.581500000000     0.115500000000     0.649300000000     0.0818028  
H        H      0.839100000000     0.028900000000     0.460600000000     0.0818028  
H        H      0.881000000000     0.943400000000     0.475300000000     0.0818028  
H        H      0.982600000000     0.209000000000     0.406600000000     0.0818028  
H        H      0.766500000000     0.243100000000     0.484100000000     0.0818028  
H        H      0.435900000000     0.295300000000     0.452800000000     0.0818028  
H        H      0.317000000000     0.313000000000     0.342700000000     0.0818028  
H        H      0.343100000000     0.293000000000     0.230300000000     0.0818028  
H        H      0.531300000000     0.244100000000     0.209300000000     0.0818028  
H        H      0.909100000000     0.246500000000     0.240000000000     0.0818028  
H        H      0.067100000000     0.209400000000     0.296600000000     0.0818028  
H        H      0.264500000000     0.524700000000     0.276800000000     0.0818028  
H        H      0.491000000000     0.523100000000     0.372500000000     0.0818028  
H        H      0.035500000000     0.416200000000     0.457000000000     0.0818028  
H        H      0.821100000000     0.420300000000     0.358200000000     0.0818028  
H        H      0.346900000000     0.460100000000     0.526500000000     0.0818028  
H        H      0.528800000000     0.424700000000     0.491200000000     0.0818028  
H        H      0.982500000000     0.603100000000     0.137100000000     0.0818028  
H        H      0.187000000000     0.612300000000     0.054100000000     0.0818028  
H        H      0.299600000000     0.391600000000     0.068700000000     0.0818028  
H        H      0.081500000000     0.384500000000     0.149300000000     0.0818028  
H        H      0.339100000000     0.471100000000     0.960600000000     0.0818028  
H        H      0.381000000000     0.556600000000     0.975300000000     0.0818028  
H        H      0.517400000000     0.709000000000     0.093400000000     0.0818028  
H        H      0.733500000000     0.743100000000     0.015900000000     0.0818028  
H        H      0.064100000000     0.795300000000     0.047200000000     0.0818028  
H        H      0.183000000000     0.813000000000     0.157300000000     0.0818028  
H        H      0.156900000000     0.793000000000     0.269700000000     0.0818028  
H        H      0.968700000000     0.744100000000     0.290700000000     0.0818028  
H        H      0.590900000000     0.746500000000     0.260000000000     0.0818028  
H        H      0.432900000000     0.709400000000     0.203400000000     0.0818028  
H        H      0.235500000000     0.024700000000     0.223200000000     0.0818028  
H        H      0.009000000000     0.023100000000     0.127500000000     0.0818028  
H        H      0.464500000000     0.916200000000     0.043000000000     0.0818028  
H        H      0.678900000000     0.920300000000     0.141800000000     0.0818028  
H        H      0.153100000000     0.960100000000     0.973500000000     0.0818028  
H        H      0.971200000000     0.924700000000     0.008800000000     0.0818028  
H        H      0.517500000000     0.103100000000     0.362900000000     0.0818028  
H        H      0.313000000000     0.112300000000     0.445900000000     0.0818028  
H        H      0.200400000000     0.891600000000     0.431300000000     0.0818028  
H        H      0.418500000000     0.884500000000     0.350700000000     0.0818028  
H        H      0.160900000000     0.971100000000     0.539400000000     0.0818028  
H        H      0.119000000000     0.056600000000     0.524700000000     0.0818028  
C        C      0.422600000000     0.728900000000     0.692600000000    -0.0187758  
C        C      0.220000000000     0.760900000000     0.673600000000    -0.0187758  
C        C      0.152200000000     0.770300000000     0.607000000000    -0.0187758  
C        C      0.281600000000     0.749600000000     0.560300000000    -0.0187758  
C        C      0.477900000000     0.718700000000     0.578800000000    -0.0187758  
C        C      0.548400000000     0.708300000000     0.644700000000    -0.0187758  
C        C      0.502000000000     0.713200000000     0.764100000000    -0.0187758  
C        C      0.398400000000     0.642400000000     0.787400000000    -0.0187758  
C        C      0.081500000000     0.788900000000     0.723700000000    -0.0187758  
C        C      0.146600000000     0.866000000000     0.749900000000    -0.0187758  
C        C      0.782600000000     0.496700000000     0.686200000000    -0.0187758  
C        C      0.645600000000     0.497700000000     0.629000000000    -0.0187758  
C        C      0.709500000000     0.530100000000     0.572300000000    -0.0187758  
C        C      0.914400000000     0.561000000000     0.578900000000    -0.0187758  
C        C      0.043000000000     0.558000000000     0.638300000000    -0.0187758  
C        C      0.564800000000     0.531800000000     0.508400000000    -0.0187758  
C        C      0.955600000000     0.440400000000     0.877500000000    -0.0187758  
C        C      0.832800000000     0.434600000000     0.927200000000    -0.0187758  
C        C      0.737200000000     0.497700000000     0.950200000000    -0.0187758  
C        C      0.768000000000     0.564900000000     0.918900000000    -0.0187758  
C        C      0.896300000000     0.569000000000     0.869800000000    -0.0187758  
C        C      0.600800000000     0.493600000000     0.005700000000    -0.0187758  
C        C      0.077400000000     0.228900000000     0.807400000000    -0.0187758  
C        C      0.280000000000     0.260900000000     0.826400000000    -0.0187758  
C        C      0.347800000000     0.270300000000     0.893000000000    -0.0187758  
C        C      0.218400000000     0.249600000000     0.939700000000    -0.0187758  
C        C      0.022100000000     0.218700000000     0.921200000000    -0.0187758  
C        C      0.951600000000     0.208300000000     0.855300000000    -0.0187758  
C        C      0.998000000000     0.213200000000     0.735900000000    -0.0187758  
C        C      0.101600000000     0.142400000000     0.712600000000    -0.0187758  
C        C      0.418500000000     0.288900000000     0.776300000000    -0.0187758  
C        C      0.353400000000     0.366000000000     0.750100000000    -0.0187758  
C        C      0.717400000000     0.996700000000     0.813800000000    -0.0187758  
C        C      0.854400000000     0.997700000000     0.871000000000    -0.0187758  
C        C      0.790500000000     0.030100000000     0.927700000000    -0.0187758  
C        C      0.585600000000     0.061000000000     0.921100000000    -0.0187758  
C        C      0.457000000000     0.058000000000     0.861700000000    -0.0187758  
C        C      0.935200000000     0.031800000000     0.991600000000    -0.0187758  
C        C      0.544400000000     0.940400000000     0.622500000000    -0.0187758  
C        C      0.667200000000     0.934600000000     0.572800000000    -0.0187758  
C        C      0.762800000000     0.997700000000     0.549800000000    -0.0187758  
C        C      0.732000000000     0.064900000000     0.581100000000    -0.0187758  
C        C      0.603700000000     0.069000000000     0.630200000000    -0.0187758  
C        C      0.899200000000     0.993600000000     0.494300000000    -0.0187758  
C        C      0.577400000000     0.271100000000     0.307400000000    -0.0187758  
C        C      0.780000000000     0.239100000000     0.326400000000    -0.0187758  
C        C      0.847800000000     0.229700000000     0.393000000000    -0.0187758  
C        C      0.718400000000     0.250400000000     0.439700000000    -0.0187758  
C        C      0.522100000000     0.281300000000     0.421200000000    -0.0187758  
C        C      0.451600000000     0.291700000000     0.355300000000    -0.0187758  
C        C      0.498000000000     0.286800000000     0.235900000000    -0.0187758  
C        C      0.601600000000     0.357600000000     0.212600000000    -0.0187758  
C        C      0.918500000000     0.211100000000     0.276300000000    -0.0187758  
C        C      0.853400000000     0.134000000000     0.250100000000    -0.0187758  
C        C      0.217400000000     0.503300000000     0.313800000000    -0.0187758  
C        C      0.354400000000     0.502300000000     0.371000000000    -0.0187758  
C        C      0.290500000000     0.469900000000     0.427700000000    -0.0187758  
C        C      0.085600000000     0.439000000000     0.421100000000    -0.0187758  
C        C      0.957000000000     0.442000000000     0.361700000000    -0.0187758  
C        C      0.435200000000     0.468200000000     0.491600000000    -0.0187758  
C        C      0.044400000000     0.559600000000     0.122500000000    -0.0187758  
C        C      0.167200000000     0.565400000000     0.072800000000    -0.0187758  
C        C      0.262800000000     0.502300000000     0.049800000000    -0.0187758  
C        C      0.232000000000     0.435100000000     0.081100000000    -0.0187758  
C        C      0.103700000000     0.431000000000     0.130200000000    -0.0187758  
C        C      0.399200000000     0.506400000000     0.994300000000    -0.0187758  
C        C      0.922600000000     0.771100000000     0.192600000000    -0.0187758  
C        C      0.720000000000     0.739100000000     0.173600000000    -0.0187758  
C        C      0.652200000000     0.729700000000     0.107000000000    -0.0187758  
C        C      0.781600000000     0.750400000000     0.060300000000    -0.0187758  
C        C      0.977900000000     0.781300000000     0.078800000000    -0.0187758  
C        C      0.048400000000     0.791700000000     0.144700000000    -0.0187758  
C        C      0.002000000000     0.786800000000     0.264100000000    -0.0187758  
C        C      0.898400000000     0.857600000000     0.287400000000    -0.0187758  
C        C      0.581500000000     0.711100000000     0.223700000000    -0.0187758  
C        C      0.646600000000     0.634000000000     0.249900000000    -0.0187758  
C        C      0.282600000000     0.003300000000     0.186200000000    -0.0187758  
C        C      0.145600000000     0.002300000000     0.129000000000    -0.0187758  
C        C      0.209500000000     0.969900000000     0.072300000000    -0.0187758  
C        C      0.414400000000     0.939000000000     0.078900000000    -0.0187758  
C        C      0.543000000000     0.942000000000     0.138300000000    -0.0187758  
C        C      0.064800000000     0.968200000000     0.008400000000    -0.0187758  
C        C      0.455600000000     0.059600000000     0.377500000000    -0.0187758  
C        C      0.332800000000     0.065400000000     0.427200000000    -0.0187758  
C        C      0.237200000000     0.002300000000     0.450200000000    -0.0187758  
C        C      0.268000000000     0.935100000000     0.418900000000    -0.0187758  
C        C      0.396300000000     0.931000000000     0.369800000000    -0.0187758  
C        C      0.100800000000     0.006400000000     0.505700000000    -0.0187758  
N        N      0.981100000000     0.524900000000     0.691700000000    -0.180265   
N        N      0.991000000000     0.506900000000     0.848600000000    -0.180265   
N        N      0.518900000000     0.024900000000     0.808300000000    -0.180265   
N        N      0.509000000000     0.006900000000     0.651400000000    -0.180265   
N        N      0.018900000000     0.475100000000     0.308300000000    -0.180265   
N        N      0.009000000000     0.493100000000     0.151400000000    -0.180265   
N        N      0.481100000000     0.975100000000     0.191700000000    -0.180265   
N        N      0.491000000000     0.993100000000     0.348600000000    -0.180265   
O        O      0.412200000000     0.583700000000     0.755200000000    -0.323113   
O        O      0.301300000000     0.642900000000     0.834300000000    -0.323113   
O        O      0.188600000000     0.913500000000     0.707200000000    -0.323113   
O        O      0.156900000000     0.880600000000     0.809300000000    -0.323113   
O        O      0.087800000000     0.083700000000     0.744800000000    -0.323113   
O        O      0.198700000000     0.142900000000     0.665700000000    -0.323113   
O        O      0.311400000000     0.413500000000     0.792800000000    -0.323113   
O        O      0.343100000000     0.380600000000     0.690700000000    -0.323113   
O        O      0.587800000000     0.416300000000     0.244800000000    -0.323113   
O        O      0.698700000000     0.357100000000     0.165700000000    -0.323113   
O        O      0.811400000000     0.086500000000     0.292800000000    -0.323113   
O        O      0.843100000000     0.119400000000     0.190700000000    -0.323113   
O        O      0.912200000000     0.916300000000     0.255200000000    -0.323113   
O        O      0.801300000000     0.857100000000     0.334300000000    -0.323113   
O        O      0.688600000000     0.586500000000     0.207200000000    -0.323113   
O        O      0.656900000000     0.619400000000     0.309300000000    -0.323113   


