data_YAXBOP_original

_audit_creation_method RASPA-1.0
_audit_creation_date 2022-1-31
_audit_author_name 'Felipe Lopes de Oliveira <felipe.lopes.oliveira@ibm.com>'

_cell_length_a    6.889
_cell_length_b    11.073
_cell_length_c    11.0969
_cell_angle_alpha 119.929
_cell_angle_beta  105.799
_cell_angle_gamma 90
_cell_volume      696.466

_symmetry_cell_setting          triclinic
_symmetry_space_group_name_Hall 'P 1'
_symmetry_space_group_name_H-M  'P 1'
_symmetry_Int_Tables_number     1

_symmetry_equiv_pos_as_xyz 'x,y,z'

loop_
_atom_site_label
_atom_site_type_symbol
_atom_site_fract_x
_atom_site_fract_y
_atom_site_fract_z
_atom_site_charge
Fe       Fe     0.000000000000     0.000000000000     0.000000000000     1.02275    
Fe       Fe     0.500000000000     0.000000000000     0.000000000000     1.02275    
H        H      0.662600000000     0.016900000000     0.417600000000     0.0582269  
H        H      0.212400000000     0.965600000000     0.361400000000     0.0582269  
H        H      0.837400000000     0.599300000000     0.582400000000     0.0582269  
H        H      0.287600000000     0.604200000000     0.638600000000     0.0582269  
H        H      0.337400000000     0.983100000000     0.582400000000     0.0582269  
H        H      0.787600000000     0.034400000000     0.638600000000     0.0582269  
H        H      0.162600000000     0.400700000000     0.417600000000     0.0582269  
H        H      0.712400000000     0.395800000000     0.361400000000     0.0582269  
C        C      0.921900000000     0.986900000000     0.363000000000     0.0701365  
C        C      0.799000000000     0.009500000000     0.450400000000     0.0701365  
C        C      0.843500000000     0.974500000000     0.217000000000     0.0701365  
C        C      0.126000000000     0.979000000000     0.417000000000     0.0701365  
C        C      0.578100000000     0.623900000000     0.637000000000     0.0701365  
C        C      0.701000000000     0.559100000000     0.549600000000     0.0701365  
C        C      0.656500000000     0.757500000000     0.783000000000     0.0701365  
C        C      0.374000000000     0.562000000000     0.583000000000     0.0701365  
C        C      0.078100000000     0.013100000000     0.637000000000     0.0701365  
C        C      0.201000000000     0.990500000000     0.549600000000     0.0701365  
C        C      0.156500000000     0.025500000000     0.783000000000     0.0701365  
C        C      0.874000000000     0.021000000000     0.583000000000     0.0701365  
C        C      0.421900000000     0.376100000000     0.363000000000     0.0701365  
C        C      0.299000000000     0.440900000000     0.450400000000     0.0701365  
C        C      0.343500000000     0.242500000000     0.217000000000     0.0701365  
C        C      0.626000000000     0.438000000000     0.417000000000     0.0701365  
O        O      0.960900000000     0.945200000000     0.142400000000    -0.36335    
O        O      0.656300000000     0.988200000000     0.177600000000    -0.36335    
O        O      0.539100000000     0.802800000000     0.857600000000    -0.36335    
O        O      0.843700000000     0.810600000000     0.822400000000    -0.36335    
O        O      0.039100000000     0.054800000000     0.857600000000    -0.36335    
O        O      0.343700000000     0.011800000000     0.822400000000    -0.36335    
O        O      0.460900000000     0.197200000000     0.142400000000    -0.36335    
O        O      0.156300000000     0.189400000000     0.177600000000    -0.36335    
O        O      0.250000000000     0.918200000000     0.000000000000    -0.36335    
O        O      0.750000000000     0.081800000000     0.000000000000    -0.36335    


