data_YAZFOW_original

_audit_creation_method RASPA-1.0
_audit_creation_date 2022-1-30
_audit_author_name 'Felipe Lopes de Oliveira <felipe.lopes.oliveira@ibm.com>'

_cell_length_a    12.3202
_cell_length_b    12.6137
_cell_length_c    12.6137
_cell_angle_alpha 76.202
_cell_angle_beta  60.7669
_cell_angle_gamma 60.7669
_cell_volume      1492.7

_symmetry_cell_setting          triclinic
_symmetry_space_group_name_Hall 'P 1'
_symmetry_space_group_name_H-M  'P 1'
_symmetry_Int_Tables_number     1

_symmetry_equiv_pos_as_xyz 'x,y,z'

loop_
_atom_site_label
_atom_site_type_symbol
_atom_site_fract_x
_atom_site_fract_y
_atom_site_fract_z
_atom_site_charge
In       In     0.312040000000     0.375930000000     0.000000000000     2.93417    
In       In     0.687960000000     0.624070000000     0.000000000000     2.93417    
In       In     0.562030000000     0.500000000000     0.875940000000     2.93417    
In       In     0.937970000000     0.500000000000     0.124060000000     2.93417    
H        H      0.271100000000     0.446200000000     0.674200000000     0.0932386  
H        H      0.391500000000     0.553800000000     0.325800000000     0.0932386  
H        H      0.195300000000     0.825800000000     0.946200000000     0.0932386  
H        H      0.967300000000     0.174200000000     0.053800000000     0.0932386  
H        H      0.858500000000     0.174200000000     0.946200000000     0.0932386  
H        H      0.978900000000     0.825800000000     0.053800000000     0.0932386  
H        H      0.282700000000     0.446200000000     0.325800000000     0.0932386  
H        H      0.054700000000     0.553800000000     0.674200000000     0.0932386  
H        H      0.125000000000     0.557400000000     0.942600000000     0.0932386  
H        H      0.625000000000     0.442600000000     0.057400000000     0.0932386  
H        H      0.317600000000     0.557400000000     0.057400000000     0.0932386  
H        H      0.932400000000     0.442600000000     0.942600000000     0.0932386  
H        H      0.614100000000     0.500000000000     0.500000000000     0.0932386  
H        H      0.364100000000     0.000000000000     0.000000000000     0.0932386  
H        H      0.635900000000     0.000000000000     0.000000000000     0.0932386  
H        H      0.885900000000     0.500000000000     0.500000000000     0.0932386  
C        C      0.332220000000     0.468860000000     0.604500000000     0.117824   
C        C      0.442930000000     0.471070000000     0.606070000000     0.117824   
C        C      0.457240000000     0.446830000000     0.721210000000     0.117824   
C        C      0.405580000000     0.531140000000     0.395500000000     0.117824   
C        C      0.520070000000     0.528930000000     0.393930000000     0.117824   
C        C      0.625280000000     0.553170000000     0.278790000000     0.117824   
C        C      0.186720000000     0.895500000000     0.968860000000     0.117824   
C        C      0.299000000000     0.893930000000     0.971070000000     0.117824   
C        C      0.428450000000     0.778790000000     0.946830000000     0.117824   
C        C      0.051080000000     0.104500000000     0.031140000000     0.117824   
C        C      0.164000000000     0.106070000000     0.028930000000     0.117824   
C        C      0.154070000000     0.221210000000     0.053170000000     0.117824   
C        C      0.844420000000     0.104500000000     0.968860000000     0.117824   
C        C      0.729930000000     0.106070000000     0.971070000000     0.117824   
C        C      0.624720000000     0.221210000000     0.946830000000     0.117824   
C        C      0.917780000000     0.895500000000     0.031140000000     0.117824   
C        C      0.807070000000     0.893930000000     0.028930000000     0.117824   
C        C      0.792760000000     0.778790000000     0.053170000000     0.117824   
C        C      0.198920000000     0.468860000000     0.395500000000     0.117824   
C        C      0.086000000000     0.471070000000     0.393930000000     0.117824   
C        C      0.095930000000     0.446830000000     0.278790000000     0.117824   
C        C      0.063280000000     0.531140000000     0.604500000000     0.117824   
C        C      0.951000000000     0.528930000000     0.606070000000     0.117824   
C        C      0.821550000000     0.553170000000     0.721210000000     0.117824   
C        C      0.311300000000     0.500000000000     0.500000000000     0.117824   
C        C      0.538600000000     0.500000000000     0.500000000000     0.117824   
C        C      0.061300000000     0.000000000000     0.000000000000     0.117824   
C        C      0.288600000000     0.000000000000     0.000000000000     0.117824   
C        C      0.938700000000     0.000000000000     0.000000000000     0.117824   
C        C      0.711400000000     0.000000000000     0.000000000000     0.117824   
C        C      0.188700000000     0.500000000000     0.500000000000     0.117824   
C        C      0.961400000000     0.500000000000     0.500000000000     0.117824   
O        O      0.402710000000     0.383790000000     0.800850000000    -0.849942   
O        O      0.524790000000     0.493970000000     0.728130000000    -0.849942   
O        O      0.587350000000     0.616210000000     0.199150000000    -0.849942   
O        O      0.746890000000     0.506030000000     0.271870000000    -0.849942   
O        O      0.453560000000     0.699150000000     0.883790000000    -0.849942   
O        O      0.502920000000     0.771870000000     0.993970000000    -0.849942   
O        O      0.036500000000     0.300850000000     0.116210000000    -0.849942   
O        O      0.268760000000     0.228130000000     0.006030000000    -0.849942   
O        O      0.662650000000     0.300850000000     0.883790000000    -0.849942   
O        O      0.503110000000     0.228130000000     0.993970000000    -0.849942   
O        O      0.847290000000     0.699150000000     0.116210000000    -0.849942   
O        O      0.725210000000     0.771870000000     0.006030000000    -0.849942   
O        O      0.213500000000     0.383790000000     0.199150000000    -0.849942   
O        O      0.981240000000     0.493970000000     0.271870000000    -0.849942   
O        O      0.796440000000     0.616210000000     0.800850000000    -0.849942   
O        O      0.747080000000     0.506030000000     0.728130000000    -0.849942   
O        O      0.125000000000     0.501000000000     0.999000000000    -0.849942   
O        O      0.625000000000     0.499000000000     0.001000000000    -0.849942   
O        O      0.374000000000     0.501000000000     0.001000000000    -0.849942   
O        O      0.876000000000     0.499000000000     0.999000000000    -0.849942   


