data_YECQUS02_original

_audit_creation_method RASPA-1.0
_audit_creation_date 2022-1-30
_audit_author_name 'Felipe Lopes de Oliveira <felipe.lopes.oliveira@ibm.com>'

_cell_length_a    8.9274
_cell_length_b    14.685
_cell_length_c    14.685
_cell_angle_alpha 90
_cell_angle_beta  90
_cell_angle_gamma 90
_cell_volume      1925.19

_symmetry_cell_setting          triclinic
_symmetry_space_group_name_Hall 'P 1'
_symmetry_space_group_name_H-M  'P 1'
_symmetry_Int_Tables_number     1

_symmetry_equiv_pos_as_xyz 'x,y,z'

loop_
_atom_site_label
_atom_site_type_symbol
_atom_site_fract_x
_atom_site_fract_y
_atom_site_fract_z
_atom_site_charge
Zn       Zn     0.260920000000     0.868210000000     0.988850000000     0.516377   
Zn       Zn     0.446010000000     0.998440000000     0.631090000000     0.516377   
Zn       Zn     0.260920000000     0.131790000000     0.011150000000     0.516377   
Zn       Zn     0.446010000000     0.001560000000     0.368910000000     0.516377   
Zn       Zn     0.760920000000     0.011150000000     0.868210000000     0.516377   
Zn       Zn     0.946010000000     0.368910000000     0.998440000000     0.516377   
Zn       Zn     0.760920000000     0.988850000000     0.131790000000     0.516377   
Zn       Zn     0.946010000000     0.631090000000     0.001560000000     0.516377   
Zn       Zn     0.260920000000     0.368210000000     0.511150000000     0.516377   
Zn       Zn     0.446010000000     0.498440000000     0.868910000000     0.516377   
Zn       Zn     0.260920000000     0.631790000000     0.488850000000     0.516377   
Zn       Zn     0.446010000000     0.501560000000     0.131090000000     0.516377   
Zn       Zn     0.760920000000     0.511150000000     0.631790000000     0.516377   
Zn       Zn     0.946010000000     0.868910000000     0.501560000000     0.516377   
Zn       Zn     0.760920000000     0.488850000000     0.368210000000     0.516377   
Zn       Zn     0.946010000000     0.131090000000     0.498440000000     0.516377   
P        P      0.304800000000     0.646300000000     0.000000000000     0.515357   
P        P      0.403100000000     0.013400000000     0.853000000000     0.515357   
P        P      0.304800000000     0.353700000000     0.000000000000     0.515357   
P        P      0.403100000000     0.986600000000     0.147000000000     0.515357   
P        P      0.804800000000     0.000000000000     0.646300000000     0.515357   
P        P      0.903100000000     0.147000000000     0.013400000000     0.515357   
P        P      0.804800000000     0.000000000000     0.353700000000     0.515357   
P        P      0.903100000000     0.853000000000     0.986600000000     0.515357   
P        P      0.304800000000     0.146300000000     0.500000000000     0.515357   
P        P      0.403100000000     0.513400000000     0.647000000000     0.515357   
P        P      0.304800000000     0.853700000000     0.500000000000     0.515357   
P        P      0.403100000000     0.486600000000     0.353000000000     0.515357   
P        P      0.804800000000     0.500000000000     0.853700000000     0.515357   
P        P      0.903100000000     0.647000000000     0.486600000000     0.515357   
P        P      0.804800000000     0.500000000000     0.146300000000     0.515357   
P        P      0.903100000000     0.353000000000     0.513400000000     0.515357   
O        O      0.396900000000     0.922300000000     0.903600000000    -0.257933   
O        O      0.557200000000     0.053800000000     0.860800000000    -0.257933   
O        O      0.286700000000     0.077100000000     0.894200000000    -0.257933   
O        O      0.363900000000     0.996400000000     0.754300000000    -0.257933   
O        O      0.354800000000     0.750000000000     0.991700000000    -0.257933   
O        O      0.154000000000     0.641000000000     0.051700000000    -0.257933   
O        O      0.314000000000     0.600500000000     0.916600000000    -0.257933   
O        O      0.420000000000     0.613000000000     0.079800000000    -0.257933   
O        O      0.396900000000     0.077700000000     0.096400000000    -0.257933   
O        O      0.557200000000     0.946200000000     0.139200000000    -0.257933   
O        O      0.286700000000     0.922900000000     0.105800000000    -0.257933   
O        O      0.363900000000     0.003600000000     0.245700000000    -0.257933   
O        O      0.354800000000     0.250000000000     0.008300000000    -0.257933   
O        O      0.154000000000     0.359000000000     0.948300000000    -0.257933   
O        O      0.314000000000     0.399500000000     0.083400000000    -0.257933   
O        O      0.420000000000     0.387000000000     0.920200000000    -0.257933   
O        O      0.896900000000     0.096400000000     0.922300000000    -0.257933   
O        O      0.057200000000     0.139200000000     0.053800000000    -0.257933   
O        O      0.786700000000     0.105800000000     0.077100000000    -0.257933   
O        O      0.863900000000     0.245700000000     0.996400000000    -0.257933   
O        O      0.854800000000     0.008300000000     0.750000000000    -0.257933   
O        O      0.654000000000     0.948300000000     0.641000000000    -0.257933   
O        O      0.814000000000     0.083400000000     0.600500000000    -0.257933   
O        O      0.920000000000     0.920200000000     0.613000000000    -0.257933   
O        O      0.896900000000     0.903600000000     0.077700000000    -0.257933   
O        O      0.057200000000     0.860800000000     0.946200000000    -0.257933   
O        O      0.786700000000     0.894200000000     0.922900000000    -0.257933   
O        O      0.863900000000     0.754300000000     0.003600000000    -0.257933   
O        O      0.854800000000     0.991700000000     0.250000000000    -0.257933   
O        O      0.654000000000     0.051700000000     0.359000000000    -0.257933   
O        O      0.814000000000     0.916600000000     0.399500000000    -0.257933   
O        O      0.920000000000     0.079800000000     0.387000000000    -0.257933   
O        O      0.396900000000     0.422300000000     0.596400000000    -0.257933   
O        O      0.557200000000     0.553800000000     0.639200000000    -0.257933   
O        O      0.286700000000     0.577100000000     0.605800000000    -0.257933   
O        O      0.363900000000     0.496400000000     0.745700000000    -0.257933   
O        O      0.354800000000     0.250000000000     0.508300000000    -0.257933   
O        O      0.154000000000     0.141000000000     0.448300000000    -0.257933   
O        O      0.314000000000     0.100500000000     0.583400000000    -0.257933   
O        O      0.420000000000     0.113000000000     0.420200000000    -0.257933   
O        O      0.396900000000     0.577700000000     0.403600000000    -0.257933   
O        O      0.557200000000     0.446200000000     0.360800000000    -0.257933   
O        O      0.286700000000     0.422900000000     0.394200000000    -0.257933   
O        O      0.363900000000     0.503600000000     0.254300000000    -0.257933   
O        O      0.354800000000     0.750000000000     0.491700000000    -0.257933   
O        O      0.154000000000     0.859000000000     0.551700000000    -0.257933   
O        O      0.314000000000     0.899500000000     0.416600000000    -0.257933   
O        O      0.420000000000     0.887000000000     0.579800000000    -0.257933   
O        O      0.896900000000     0.596400000000     0.577700000000    -0.257933   
O        O      0.057200000000     0.639200000000     0.446200000000    -0.257933   
O        O      0.786700000000     0.605800000000     0.422900000000    -0.257933   
O        O      0.863900000000     0.745700000000     0.503600000000    -0.257933   
O        O      0.854800000000     0.508300000000     0.750000000000    -0.257933   
O        O      0.654000000000     0.448300000000     0.859000000000    -0.257933   
O        O      0.814000000000     0.583400000000     0.899500000000    -0.257933   
O        O      0.920000000000     0.420200000000     0.887000000000    -0.257933   
O        O      0.896900000000     0.403600000000     0.422300000000    -0.257933   
O        O      0.057200000000     0.360800000000     0.553800000000    -0.257933   
O        O      0.786700000000     0.394200000000     0.577100000000    -0.257933   
O        O      0.863900000000     0.254300000000     0.496400000000    -0.257933   
O        O      0.854800000000     0.491700000000     0.250000000000    -0.257933   
O        O      0.654000000000     0.551700000000     0.141000000000    -0.257933   
O        O      0.814000000000     0.416600000000     0.100500000000    -0.257933   
O        O      0.920000000000     0.579800000000     0.113000000000    -0.257933   


