data_YEGKOM_original

_audit_creation_method RASPA-1.0
_audit_creation_date 2022-1-30
_audit_author_name 'Felipe Lopes de Oliveira <felipe.lopes.oliveira@ibm.com>'

_cell_length_a    10.204
_cell_length_b    10.204
_cell_length_c    13.0998
_cell_angle_alpha 90
_cell_angle_beta  90
_cell_angle_gamma 90
_cell_volume      1363.97

_symmetry_cell_setting          triclinic
_symmetry_space_group_name_Hall 'P 1'
_symmetry_space_group_name_H-M  'P 1'
_symmetry_Int_Tables_number     1

_symmetry_equiv_pos_as_xyz 'x,y,z'

loop_
_atom_site_label
_atom_site_type_symbol
_atom_site_fract_x
_atom_site_fract_y
_atom_site_fract_z
_atom_site_charge
Zn       Zn     0.730310000000     0.730310000000     0.500000000000     0.35717    
Zn       Zn     0.269690000000     0.269690000000     0.000000000000     0.35717    
Zn       Zn     0.769690000000     0.230310000000     0.750000000000     0.35717    
Zn       Zn     0.230310000000     0.769690000000     0.250000000000     0.35717    
H        H      0.621500000000     0.453200000000     0.447600000000     0.112424   
H        H      0.869100000000     0.511500000000     0.766500000000     0.112424   
H        H      0.857900000000     0.636200000000     0.708100000000     0.112424   
H        H      0.378500000000     0.546800000000     0.947600000000     0.112424   
H        H      0.130900000000     0.488500000000     0.266500000000     0.112424   
H        H      0.142100000000     0.363800000000     0.208100000000     0.112424   
H        H      0.046800000000     0.121500000000     0.697600000000     0.112424   
H        H      0.988500000000     0.369100000000     0.016500000000     0.112424   
H        H      0.863800000000     0.357900000000     0.958100000000     0.112424   
H        H      0.953200000000     0.878500000000     0.197600000000     0.112424   
H        H      0.011500000000     0.630900000000     0.516500000000     0.112424   
H        H      0.136200000000     0.642100000000     0.458100000000     0.112424   
H        H      0.878500000000     0.953200000000     0.802400000000     0.112424   
H        H      0.630900000000     0.011500000000     0.483500000000     0.112424   
H        H      0.642100000000     0.136200000000     0.541900000000     0.112424   
H        H      0.121500000000     0.046800000000     0.302400000000     0.112424   
H        H      0.369100000000     0.988500000000     0.983500000000     0.112424   
H        H      0.357900000000     0.863800000000     0.041900000000     0.112424   
H        H      0.453200000000     0.621500000000     0.552400000000     0.112424   
H        H      0.511500000000     0.869100000000     0.233500000000     0.112424   
H        H      0.636200000000     0.857900000000     0.291900000000     0.112424   
H        H      0.546800000000     0.378500000000     0.052400000000     0.112424   
H        H      0.488500000000     0.130900000000     0.733500000000     0.112424   
H        H      0.363800000000     0.142100000000     0.791900000000     0.112424   
C        C      0.771300000000     0.491000000000     0.640200000000     0.16658    
C        C      0.664900000000     0.446000000000     0.509800000000     0.16658    
C        C      0.228700000000     0.509000000000     0.140200000000     0.16658    
C        C      0.335100000000     0.554000000000     0.009800000000     0.16658    
C        C      0.009000000000     0.271300000000     0.890200000000     0.16658    
C        C      0.054000000000     0.164900000000     0.759800000000     0.16658    
C        C      0.991000000000     0.728700000000     0.390200000000     0.16658    
C        C      0.946000000000     0.835100000000     0.259800000000     0.16658    
C        C      0.728700000000     0.991000000000     0.609800000000     0.16658    
C        C      0.835100000000     0.946000000000     0.740200000000     0.16658    
C        C      0.271300000000     0.009000000000     0.109800000000     0.16658    
C        C      0.164900000000     0.054000000000     0.240200000000     0.16658    
C        C      0.491000000000     0.771300000000     0.359800000000     0.16658    
C        C      0.446000000000     0.664900000000     0.490200000000     0.16658    
C        C      0.509000000000     0.228700000000     0.859800000000     0.16658    
C        C      0.554000000000     0.335100000000     0.990200000000     0.16658    
N        N      0.725900000000     0.548000000000     0.557700000000    -0.212254   
N        N      0.747400000000     0.366700000000     0.650400000000    -0.212254   
N        N      0.674300000000     0.337000000000     0.560900000000    -0.212254   
N        N      0.841400000000     0.554000000000     0.714100000000    -0.212254   
N        N      0.274100000000     0.452000000000     0.057700000000    -0.212254   
N        N      0.252600000000     0.633300000000     0.150400000000    -0.212254   
N        N      0.325700000000     0.663000000000     0.060900000000    -0.212254   
N        N      0.158600000000     0.446000000000     0.214100000000    -0.212254   
N        N      0.952000000000     0.225900000000     0.807700000000    -0.212254   
N        N      0.133300000000     0.247400000000     0.900400000000    -0.212254   
N        N      0.163000000000     0.174300000000     0.810900000000    -0.212254   
N        N      0.946000000000     0.341400000000     0.964100000000    -0.212254   
N        N      0.048000000000     0.774100000000     0.307700000000    -0.212254   
N        N      0.866700000000     0.752600000000     0.400400000000    -0.212254   
N        N      0.837000000000     0.825700000000     0.310900000000    -0.212254   
N        N      0.054000000000     0.658600000000     0.464100000000    -0.212254   
N        N      0.774100000000     0.048000000000     0.692300000000    -0.212254   
N        N      0.752600000000     0.866700000000     0.599600000000    -0.212254   
N        N      0.825700000000     0.837000000000     0.689100000000    -0.212254   
N        N      0.658600000000     0.054000000000     0.535900000000    -0.212254   
N        N      0.225900000000     0.952000000000     0.192300000000    -0.212254   
N        N      0.247400000000     0.133300000000     0.099600000000    -0.212254   
N        N      0.174300000000     0.163000000000     0.189100000000    -0.212254   
N        N      0.341400000000     0.946000000000     0.035900000000    -0.212254   
N        N      0.548000000000     0.725900000000     0.442300000000    -0.212254   
N        N      0.366700000000     0.747400000000     0.349600000000    -0.212254   
N        N      0.337000000000     0.674300000000     0.439100000000    -0.212254   
N        N      0.554000000000     0.841400000000     0.285900000000    -0.212254   
N        N      0.452000000000     0.274100000000     0.942300000000    -0.212254   
N        N      0.633300000000     0.252600000000     0.849600000000    -0.212254   
N        N      0.663000000000     0.325700000000     0.939100000000    -0.212254   
N        N      0.446000000000     0.158600000000     0.785900000000    -0.212254   


