data_YEZFIU_original

_audit_creation_method RASPA-1.0
_audit_creation_date 2022-1-30
_audit_author_name 'Felipe Lopes de Oliveira <felipe.lopes.oliveira@ibm.com>'

_cell_length_a    13.0478
_cell_length_b    15.0693
_cell_length_c    15.0693
_cell_angle_alpha 112.027
_cell_angle_beta  106.775
_cell_angle_gamma 106.775
_cell_volume      2352.24

_symmetry_cell_setting          triclinic
_symmetry_space_group_name_Hall 'P 1'
_symmetry_space_group_name_H-M  'P 1'
_symmetry_Int_Tables_number     1

_symmetry_equiv_pos_as_xyz 'x,y,z'

loop_
_atom_site_label
_atom_site_type_symbol
_atom_site_fract_x
_atom_site_fract_y
_atom_site_fract_z
_atom_site_charge
Zn       Zn     0.969870000000     0.191190000000     0.714490000000     0.380915   
Zn       Zn     0.778680000000     0.523300000000     0.808810000000     0.380915   
Zn       Zn     0.255380000000     0.285510000000     0.476700000000     0.380915   
Zn       Zn     0.030130000000     0.808810000000     0.285510000000     0.380915   
Zn       Zn     0.221320000000     0.476700000000     0.191190000000     0.380915   
Zn       Zn     0.744620000000     0.714490000000     0.523300000000     0.380915   
H        H      0.265600000000     0.274700000000     0.752900000000     0.0706783  
H        H      0.300400000000     0.242800000000     0.658200000000     0.0706783  
H        H      0.157300000000     0.060500000000     0.581600000000     0.0706783  
H        H      0.263100000000     0.102400000000     0.692700000000     0.0706783  
H        H      0.154800000000     0.992800000000     0.742000000000     0.0706783  
H        H      0.056200000000     0.934700000000     0.623100000000     0.0706783  
H        H      0.971400000000     0.901400000000     0.733500000000     0.0706783  
H        H      0.014800000000     0.024700000000     0.803700000000     0.0706783  
H        H      0.990900000000     0.478200000000     0.725300000000     0.0706783  
H        H      0.057600000000     0.415400000000     0.757200000000     0.0706783  
H        H      0.096800000000     0.521100000000     0.939500000000     0.0706783  
H        H      0.160700000000     0.590300000000     0.897600000000     0.0706783  
H        H      0.162000000000     0.749200000000     0.007200000000     0.0706783  
H        H      0.121500000000     0.688400000000     0.065300000000     0.0706783  
H        H      0.070000000000     0.832100000000     0.098600000000     0.0706783  
H        H      0.990100000000     0.779000000000     0.975300000000     0.0706783  
H        H      0.512700000000     0.247100000000     0.521800000000     0.0706783  
H        H      0.642200000000     0.341800000000     0.584600000000     0.0706783  
H        H      0.575700000000     0.418400000000     0.478900000000     0.0706783  
H        H      0.570400000000     0.307300000000     0.409700000000     0.0706783  
H        H      0.412800000000     0.258000000000     0.250800000000     0.0706783  
H        H      0.433100000000     0.376900000000     0.311600000000     0.0706783  
H        H      0.237900000000     0.266500000000     0.167900000000     0.0706783  
H        H      0.211100000000     0.196300000000     0.221000000000     0.0706783  
H        H      0.734400000000     0.725300000000     0.247100000000     0.0706783  
H        H      0.699600000000     0.757200000000     0.341800000000     0.0706783  
H        H      0.842700000000     0.939500000000     0.418400000000     0.0706783  
H        H      0.736900000000     0.897600000000     0.307300000000     0.0706783  
H        H      0.845200000000     0.007200000000     0.258000000000     0.0706783  
H        H      0.943800000000     0.065300000000     0.376900000000     0.0706783  
H        H      0.028600000000     0.098600000000     0.266500000000     0.0706783  
H        H      0.985200000000     0.975300000000     0.196300000000     0.0706783  
H        H      0.009100000000     0.521800000000     0.274700000000     0.0706783  
H        H      0.942400000000     0.584600000000     0.242800000000     0.0706783  
H        H      0.903200000000     0.478900000000     0.060500000000     0.0706783  
H        H      0.839300000000     0.409700000000     0.102400000000     0.0706783  
H        H      0.838000000000     0.250800000000     0.992800000000     0.0706783  
H        H      0.878500000000     0.311600000000     0.934700000000     0.0706783  
H        H      0.930000000000     0.167900000000     0.901400000000     0.0706783  
H        H      0.009900000000     0.221000000000     0.024700000000     0.0706783  
H        H      0.487300000000     0.752900000000     0.478200000000     0.0706783  
H        H      0.357800000000     0.658200000000     0.415400000000     0.0706783  
H        H      0.424300000000     0.581600000000     0.521100000000     0.0706783  
H        H      0.429600000000     0.692700000000     0.590300000000     0.0706783  
H        H      0.587200000000     0.742000000000     0.749200000000     0.0706783  
H        H      0.566900000000     0.623100000000     0.688400000000     0.0706783  
H        H      0.762100000000     0.733500000000     0.832100000000     0.0706783  
H        H      0.788900000000     0.803700000000     0.779000000000     0.0706783  
C        C      0.136400000000     0.241000000000     0.613800000000     0.0134777  
C        C      0.235300000000     0.225500000000     0.677300000000     0.0134777  
C        C      0.194700000000     0.111200000000     0.657800000000     0.0134777  
C        C      0.083800000000     0.990700000000     0.695500000000     0.0134777  
C        C      0.987100000000     0.967600000000     0.731800000000     0.0134777  
C        C      0.874000000000     0.958000000000     0.658600000000     0.0134777  
C        C      0.895400000000     0.372800000000     0.759000000000     0.0134777  
C        C      0.009800000000     0.451800000000     0.774500000000     0.0134777  
C        C      0.083500000000     0.546600000000     0.888800000000     0.0134777  
C        C      0.093100000000     0.704800000000     0.009300000000     0.0134777  
C        C      0.019500000000     0.764200000000     0.032400000000     0.0134777  
C        C      0.916000000000     0.700600000000     0.042000000000     0.0134777  
C        C      0.522600000000     0.386200000000     0.627200000000     0.0134777  
C        C      0.558000000000     0.322700000000     0.548200000000     0.0134777  
C        C      0.536900000000     0.342200000000     0.453400000000     0.0134777  
C        C      0.388300000000     0.304500000000     0.295200000000     0.0134777  
C        C      0.255300000000     0.268200000000     0.235800000000     0.0134777  
C        C      0.215400000000     0.341400000000     0.299400000000     0.0134777  
C        C      0.863600000000     0.759000000000     0.386200000000     0.0134777  
C        C      0.764700000000     0.774500000000     0.322700000000     0.0134777  
C        C      0.805300000000     0.888800000000     0.342200000000     0.0134777  
C        C      0.916200000000     0.009300000000     0.304500000000     0.0134777  
C        C      0.012900000000     0.032400000000     0.268200000000     0.0134777  
C        C      0.126000000000     0.042000000000     0.341400000000     0.0134777  
C        C      0.104600000000     0.627200000000     0.241000000000     0.0134777  
C        C      0.990200000000     0.548200000000     0.225500000000     0.0134777  
C        C      0.916500000000     0.453400000000     0.111200000000     0.0134777  
C        C      0.906900000000     0.295200000000     0.990700000000     0.0134777  
C        C      0.980500000000     0.235800000000     0.967600000000     0.0134777  
C        C      0.084000000000     0.299400000000     0.958000000000     0.0134777  
C        C      0.477400000000     0.613800000000     0.372800000000     0.0134777  
C        C      0.442000000000     0.677300000000     0.451800000000     0.0134777  
C        C      0.463100000000     0.657800000000     0.546600000000     0.0134777  
C        C      0.611700000000     0.695500000000     0.704800000000     0.0134777  
C        C      0.744700000000     0.731800000000     0.764200000000     0.0134777  
C        C      0.784600000000     0.658600000000     0.700600000000     0.0134777  
N        N      0.033600000000     0.226700000000     0.621200000000    -0.097639   
N        N      0.970600000000     0.249400000000     0.549900000000    -0.097639   
N        N      0.031500000000     0.275100000000     0.502300000000    -0.097639   
N        N      0.137720000000     0.270820000000     0.541440000000    -0.097639   
N        N      0.858800000000     0.039400000000     0.653100000000    -0.097639   
N        N      0.746100000000     0.997200000000     0.574400000000    -0.097639   
N        N      0.697000000000     0.895200000000     0.535700000000    -0.097639   
N        N      0.775750000000     0.868600000000     0.588850000000    -0.097639   
N        N      0.806900000000     0.394500000000     0.773300000000    -0.097639   
N        N      0.721200000000     0.300500000000     0.750600000000    -0.097639   
N        N      0.756400000000     0.227200000000     0.724900000000    -0.097639   
N        N      0.866900000000     0.270620000000     0.729180000000    -0.097639   
N        N      0.819400000000     0.613700000000     0.960600000000    -0.097639   
N        N      0.748900000000     0.577200000000     0.002800000000    -0.097639   
N        N      0.801800000000     0.640500000000     0.104800000000    -0.097639   
N        N      0.907150000000     0.720250000000     0.131400000000    -0.097639   
N        N      0.412400000000     0.378800000000     0.605500000000    -0.097639   
N        N      0.420700000000     0.450100000000     0.699500000000    -0.097639   
N        N      0.529200000000     0.497700000000     0.772800000000    -0.097639   
N        N      0.596280000000     0.458560000000     0.729380000000    -0.097639   
N        N      0.205700000000     0.346900000000     0.386300000000    -0.097639   
N        N      0.171700000000     0.425600000000     0.422800000000    -0.097639   
N        N      0.161300000000     0.464300000000     0.359500000000    -0.097639   
N        N      0.186900000000     0.411150000000     0.279750000000    -0.097639   
N        N      0.966400000000     0.773300000000     0.378800000000    -0.097639   
N        N      0.029400000000     0.750600000000     0.450100000000    -0.097639   
N        N      0.968500000000     0.724900000000     0.497700000000    -0.097639   
N        N      0.862280000000     0.729180000000     0.458560000000    -0.097639   
N        N      0.141200000000     0.960600000000     0.346900000000    -0.097639   
N        N      0.253900000000     0.002800000000     0.425600000000    -0.097639   
N        N      0.303000000000     0.104800000000     0.464300000000    -0.097639   
N        N      0.224250000000     0.131400000000     0.411150000000    -0.097639   
N        N      0.193100000000     0.605500000000     0.226700000000    -0.097639   
N        N      0.278800000000     0.699500000000     0.249400000000    -0.097639   
N        N      0.243600000000     0.772800000000     0.275100000000    -0.097639   
N        N      0.133100000000     0.729380000000     0.270820000000    -0.097639   
N        N      0.180600000000     0.386300000000     0.039400000000    -0.097639   
N        N      0.251100000000     0.422800000000     0.997200000000    -0.097639   
N        N      0.198200000000     0.359500000000     0.895200000000    -0.097639   
N        N      0.092850000000     0.279750000000     0.868600000000    -0.097639   
N        N      0.587600000000     0.621200000000     0.394500000000    -0.097639   
N        N      0.579300000000     0.549900000000     0.300500000000    -0.097639   
N        N      0.470800000000     0.502300000000     0.227200000000    -0.097639   
N        N      0.403720000000     0.541440000000     0.270620000000    -0.097639   
N        N      0.794300000000     0.653100000000     0.613700000000    -0.097639   
N        N      0.828300000000     0.574400000000     0.577200000000    -0.097639   
N        N      0.838700000000     0.535700000000     0.640500000000    -0.097639   
N        N      0.813100000000     0.588850000000     0.720250000000    -0.097639   
O        O      0.111890000000     0.091460000000     0.699710000000    -0.246096   
O        O      0.020430000000     0.608250000000     0.908540000000    -0.246096   
O        O      0.412180000000     0.300290000000     0.391750000000    -0.246096   
O        O      0.888110000000     0.908540000000     0.300290000000    -0.246096   
O        O      0.979570000000     0.391750000000     0.091460000000    -0.246096   
O        O      0.587820000000     0.699710000000     0.608250000000    -0.246096   


