data_YIKLUZ_original

_audit_creation_method RASPA-1.0
_audit_creation_date 2022-1-29
_audit_author_name 'Felipe Lopes de Oliveira <felipe.lopes.oliveira@ibm.com>'

_cell_length_a    9.885
_cell_length_b    10.02
_cell_length_c    16.438
_cell_angle_alpha 90
_cell_angle_beta  90
_cell_angle_gamma 90
_cell_volume      1628.15

_symmetry_cell_setting          triclinic
_symmetry_space_group_name_Hall 'P 1'
_symmetry_space_group_name_H-M  'P 1'
_symmetry_Int_Tables_number     1

_symmetry_equiv_pos_as_xyz 'x,y,z'

loop_
_atom_site_label
_atom_site_type_symbol
_atom_site_fract_x
_atom_site_fract_y
_atom_site_fract_z
_atom_site_charge
Zn       Zn     0.643800000000     0.596600000000     0.796650000000     0.502249   
Zn       Zn     0.856200000000     0.903400000000     0.796650000000     0.502249   
Zn       Zn     0.356200000000     0.096600000000     0.703350000000     0.502249   
Zn       Zn     0.143800000000     0.403400000000     0.703350000000     0.502249   
Zn       Zn     0.356200000000     0.403400000000     0.203350000000     0.502249   
Zn       Zn     0.143800000000     0.096600000000     0.203350000000     0.502249   
Zn       Zn     0.643800000000     0.903400000000     0.296650000000     0.502249   
Zn       Zn     0.856200000000     0.596600000000     0.296650000000     0.502249   
P        P      0.927100000000     0.637300000000     0.712800000000     0.411922   
P        P      0.572900000000     0.862700000000     0.712800000000     0.411922   
P        P      0.072900000000     0.137300000000     0.787200000000     0.411922   
P        P      0.427100000000     0.362700000000     0.787200000000     0.411922   
P        P      0.072900000000     0.362700000000     0.287200000000     0.411922   
P        P      0.427100000000     0.137300000000     0.287200000000     0.411922   
P        P      0.927100000000     0.862700000000     0.212800000000     0.411922   
P        P      0.572900000000     0.637300000000     0.212800000000     0.411922   
C        C      0.859000000000     0.588000000000     0.617800000000     0.0972599  
C        C      0.916000000000     0.659000000000     0.545200000000     0.0972599  
C        C      0.639000000000     0.611000000000     0.961600000000     0.0972599  
C        C      0.641000000000     0.912000000000     0.617800000000     0.0972599  
C        C      0.584000000000     0.841000000000     0.545200000000     0.0972599  
C        C      0.861000000000     0.889000000000     0.961600000000     0.0972599  
C        C      0.141000000000     0.088000000000     0.882200000000     0.0972599  
C        C      0.084000000000     0.159000000000     0.954800000000     0.0972599  
C        C      0.361000000000     0.111000000000     0.538400000000     0.0972599  
C        C      0.359000000000     0.412000000000     0.882200000000     0.0972599  
C        C      0.416000000000     0.341000000000     0.954800000000     0.0972599  
C        C      0.139000000000     0.389000000000     0.538400000000     0.0972599  
C        C      0.141000000000     0.412000000000     0.382200000000     0.0972599  
C        C      0.084000000000     0.341000000000     0.454800000000     0.0972599  
C        C      0.361000000000     0.389000000000     0.038400000000     0.0972599  
C        C      0.359000000000     0.088000000000     0.382200000000     0.0972599  
C        C      0.416000000000     0.159000000000     0.454800000000     0.0972599  
C        C      0.139000000000     0.111000000000     0.038400000000     0.0972599  
C        C      0.859000000000     0.912000000000     0.117800000000     0.0972599  
C        C      0.916000000000     0.841000000000     0.045200000000     0.0972599  
C        C      0.639000000000     0.889000000000     0.461600000000     0.0972599  
C        C      0.641000000000     0.588000000000     0.117800000000     0.0972599  
C        C      0.584000000000     0.659000000000     0.045200000000     0.0972599  
C        C      0.861000000000     0.611000000000     0.461600000000     0.0972599  
O        O      0.838000000000     0.581400000000     0.779800000000    -0.24119    
O        O      0.571100000000     0.417400000000     0.780900000000    -0.24119    
O        O      0.566400000000     0.710700000000     0.712400000000    -0.24119    
O        O      0.584000000000     0.666000000000     0.901300000000    -0.24119    
O        O      0.727000000000     0.526000000000     0.958600000000    -0.24119    
O        O      0.662000000000     0.918600000000     0.779800000000    -0.24119    
O        O      0.928900000000     0.082600000000     0.780900000000    -0.24119    
O        O      0.933600000000     0.789300000000     0.712400000000    -0.24119    
O        O      0.916000000000     0.834000000000     0.901300000000    -0.24119    
O        O      0.773000000000     0.974000000000     0.958600000000    -0.24119    
O        O      0.162000000000     0.081400000000     0.720200000000    -0.24119    
O        O      0.428900000000     0.917400000000     0.719100000000    -0.24119    
O        O      0.433600000000     0.210700000000     0.787600000000    -0.24119    
O        O      0.416000000000     0.166000000000     0.598700000000    -0.24119    
O        O      0.273000000000     0.026000000000     0.541400000000    -0.24119    
O        O      0.338000000000     0.418600000000     0.720200000000    -0.24119    
O        O      0.071100000000     0.582600000000     0.719100000000    -0.24119    
O        O      0.066400000000     0.289300000000     0.787600000000    -0.24119    
O        O      0.084000000000     0.334000000000     0.598700000000    -0.24119    
O        O      0.227000000000     0.474000000000     0.541400000000    -0.24119    
O        O      0.162000000000     0.418600000000     0.220200000000    -0.24119    
O        O      0.428900000000     0.582600000000     0.219100000000    -0.24119    
O        O      0.433600000000     0.289300000000     0.287600000000    -0.24119    
O        O      0.416000000000     0.334000000000     0.098700000000    -0.24119    
O        O      0.273000000000     0.474000000000     0.041400000000    -0.24119    
O        O      0.338000000000     0.081400000000     0.220200000000    -0.24119    
O        O      0.071100000000     0.917400000000     0.219100000000    -0.24119    
O        O      0.066400000000     0.210700000000     0.287600000000    -0.24119    
O        O      0.084000000000     0.166000000000     0.098700000000    -0.24119    
O        O      0.227000000000     0.026000000000     0.041400000000    -0.24119    
O        O      0.838000000000     0.918600000000     0.279800000000    -0.24119    
O        O      0.571100000000     0.082600000000     0.280900000000    -0.24119    
O        O      0.566400000000     0.789300000000     0.212400000000    -0.24119    
O        O      0.584000000000     0.834000000000     0.401300000000    -0.24119    
O        O      0.727000000000     0.974000000000     0.458600000000    -0.24119    
O        O      0.662000000000     0.581400000000     0.279800000000    -0.24119    
O        O      0.928900000000     0.417400000000     0.280900000000    -0.24119    
O        O      0.933600000000     0.710700000000     0.212400000000    -0.24119    
O        O      0.916000000000     0.666000000000     0.401300000000    -0.24119    
O        O      0.773000000000     0.526000000000     0.458600000000    -0.24119    


