data_YILJAG_original

_audit_creation_method RASPA-1.0
_audit_creation_date 2022-1-29
_audit_author_name 'Felipe Lopes de Oliveira <felipe.lopes.oliveira@ibm.com>'

_cell_length_a    11.5585
_cell_length_b    11.5585
_cell_length_c    25.819
_cell_angle_alpha 90
_cell_angle_beta  90
_cell_angle_gamma 90
_cell_volume      3449.39

_symmetry_cell_setting          triclinic
_symmetry_space_group_name_Hall 'P 1'
_symmetry_space_group_name_H-M  'P 1'
_symmetry_Int_Tables_number     1

_symmetry_equiv_pos_as_xyz 'x,y,z'

loop_
_atom_site_label
_atom_site_type_symbol
_atom_site_fract_x
_atom_site_fract_y
_atom_site_fract_z
_atom_site_charge
Zn       Zn     0.901220000000     0.098780000000     0.791860000000     0.384151   
Zn       Zn     0.098780000000     0.901220000000     0.791860000000     0.384151   
Zn       Zn     0.901220000000     0.901220000000     0.291860000000     0.384151   
Zn       Zn     0.098780000000     0.098780000000     0.291860000000     0.384151   
Zn       Zn     0.098780000000     0.098780000000     0.708140000000     0.384151   
Zn       Zn     0.901220000000     0.901220000000     0.708140000000     0.384151   
Zn       Zn     0.098780000000     0.901220000000     0.208140000000     0.384151   
Zn       Zn     0.901220000000     0.098780000000     0.208140000000     0.384151   
H        H      0.679300000000     0.176100000000     0.839700000000     0.151838   
H        H      0.562000000000     0.209700000000     0.810400000000     0.151838   
H        H      0.562900000000     0.105500000000     0.851200000000     0.151838   
H        H      0.320700000000     0.823900000000     0.839700000000     0.151838   
H        H      0.438000000000     0.790300000000     0.810400000000     0.151838   
H        H      0.437100000000     0.894500000000     0.851200000000     0.151838   
H        H      0.823900000000     0.679300000000     0.339700000000     0.151838   
H        H      0.790300000000     0.562000000000     0.310400000000     0.151838   
H        H      0.894500000000     0.562900000000     0.351200000000     0.151838   
H        H      0.176100000000     0.320700000000     0.339700000000     0.151838   
H        H      0.209700000000     0.438000000000     0.310400000000     0.151838   
H        H      0.105500000000     0.437100000000     0.351200000000     0.151838   
H        H      0.320700000000     0.176100000000     0.660300000000     0.151838   
H        H      0.438000000000     0.209700000000     0.689600000000     0.151838   
H        H      0.437100000000     0.105500000000     0.648800000000     0.151838   
H        H      0.679300000000     0.823900000000     0.660300000000     0.151838   
H        H      0.562000000000     0.790300000000     0.689600000000     0.151838   
H        H      0.562900000000     0.894500000000     0.648800000000     0.151838   
H        H      0.176100000000     0.679300000000     0.160300000000     0.151838   
H        H      0.209700000000     0.562000000000     0.189600000000     0.151838   
H        H      0.105500000000     0.562900000000     0.148800000000     0.151838   
H        H      0.823900000000     0.320700000000     0.160300000000     0.151838   
H        H      0.790300000000     0.438000000000     0.189600000000     0.151838   
H        H      0.894500000000     0.437100000000     0.148800000000     0.151838   
H        H      0.320700000000     0.823900000000     0.160300000000     0.151838   
H        H      0.438000000000     0.790300000000     0.189600000000     0.151838   
H        H      0.437100000000     0.894500000000     0.148800000000     0.151838   
H        H      0.679300000000     0.176100000000     0.160300000000     0.151838   
H        H      0.562000000000     0.209700000000     0.189600000000     0.151838   
H        H      0.562900000000     0.105500000000     0.148800000000     0.151838   
H        H      0.176100000000     0.320700000000     0.660300000000     0.151838   
H        H      0.209700000000     0.438000000000     0.689600000000     0.151838   
H        H      0.105500000000     0.437100000000     0.648800000000     0.151838   
H        H      0.823900000000     0.679300000000     0.660300000000     0.151838   
H        H      0.790300000000     0.562000000000     0.689600000000     0.151838   
H        H      0.894500000000     0.562900000000     0.648800000000     0.151838   
H        H      0.679300000000     0.823900000000     0.339700000000     0.151838   
H        H      0.562000000000     0.790300000000     0.310400000000     0.151838   
H        H      0.562900000000     0.894500000000     0.351200000000     0.151838   
H        H      0.320700000000     0.176100000000     0.339700000000     0.151838   
H        H      0.438000000000     0.209700000000     0.310400000000     0.151838   
H        H      0.437100000000     0.105500000000     0.351200000000     0.151838   
H        H      0.823900000000     0.320700000000     0.839700000000     0.151838   
H        H      0.790300000000     0.438000000000     0.810400000000     0.151838   
H        H      0.894500000000     0.437100000000     0.851200000000     0.151838   
H        H      0.176100000000     0.679300000000     0.839700000000     0.151838   
H        H      0.209700000000     0.562000000000     0.810400000000     0.151838   
H        H      0.105500000000     0.562900000000     0.851200000000     0.151838   
H        H      0.876300000000     0.123700000000     0.955600000000     0.151838   
H        H      0.123700000000     0.876300000000     0.955600000000     0.151838   
H        H      0.876300000000     0.876300000000     0.455600000000     0.151838   
H        H      0.123700000000     0.123700000000     0.455600000000     0.151838   
H        H      0.123700000000     0.123700000000     0.544400000000     0.151838   
H        H      0.876300000000     0.876300000000     0.544400000000     0.151838   
H        H      0.123700000000     0.876300000000     0.044400000000     0.151838   
H        H      0.876300000000     0.123700000000     0.044400000000     0.151838   
C        C      0.636800000000     0.063300000000     0.782190000000    -0.102216   
C        C      0.607800000000     0.145700000000     0.824500000000    -0.102216   
C        C      0.363200000000     0.936700000000     0.782190000000    -0.102216   
C        C      0.392200000000     0.854300000000     0.824500000000    -0.102216   
C        C      0.936700000000     0.636800000000     0.282190000000    -0.102216   
C        C      0.854300000000     0.607800000000     0.324500000000    -0.102216   
C        C      0.063300000000     0.363200000000     0.282190000000    -0.102216   
C        C      0.145700000000     0.392200000000     0.324500000000    -0.102216   
C        C      0.363200000000     0.063300000000     0.717810000000    -0.102216   
C        C      0.392200000000     0.145700000000     0.675500000000    -0.102216   
C        C      0.636800000000     0.936700000000     0.717810000000    -0.102216   
C        C      0.607800000000     0.854300000000     0.675500000000    -0.102216   
C        C      0.063300000000     0.636800000000     0.217810000000    -0.102216   
C        C      0.145700000000     0.607800000000     0.175500000000    -0.102216   
C        C      0.936700000000     0.363200000000     0.217810000000    -0.102216   
C        C      0.854300000000     0.392200000000     0.175500000000    -0.102216   
C        C      0.363200000000     0.936700000000     0.217810000000    -0.102216   
C        C      0.392200000000     0.854300000000     0.175500000000    -0.102216   
C        C      0.636800000000     0.063300000000     0.217810000000    -0.102216   
C        C      0.607800000000     0.145700000000     0.175500000000    -0.102216   
C        C      0.063300000000     0.363200000000     0.717810000000    -0.102216   
C        C      0.145700000000     0.392200000000     0.675500000000    -0.102216   
C        C      0.936700000000     0.636800000000     0.717810000000    -0.102216   
C        C      0.854300000000     0.607800000000     0.675500000000    -0.102216   
C        C      0.636800000000     0.936700000000     0.282190000000    -0.102216   
C        C      0.607800000000     0.854300000000     0.324500000000    -0.102216   
C        C      0.363200000000     0.063300000000     0.282190000000    -0.102216   
C        C      0.392200000000     0.145700000000     0.324500000000    -0.102216   
C        C      0.936700000000     0.363200000000     0.782190000000    -0.102216   
C        C      0.854300000000     0.392200000000     0.824500000000    -0.102216   
C        C      0.063300000000     0.636800000000     0.782190000000    -0.102216   
C        C      0.145700000000     0.607800000000     0.824500000000    -0.102216   
C        C      0.928200000000     0.071800000000     0.973900000000    -0.102216   
C        C      0.071800000000     0.928200000000     0.973900000000    -0.102216   
C        C      0.928200000000     0.928200000000     0.473900000000    -0.102216   
C        C      0.071800000000     0.071800000000     0.473900000000    -0.102216   
C        C      0.071800000000     0.071800000000     0.526100000000    -0.102216   
C        C      0.928200000000     0.928200000000     0.526100000000    -0.102216   
C        C      0.071800000000     0.928200000000     0.026100000000    -0.102216   
C        C      0.928200000000     0.071800000000     0.026100000000    -0.102216   
C        C      0.000000000000     0.000000000000     0.888200000000    -0.102216   
C        C      0.000000000000     0.000000000000     0.945500000000    -0.102216   
C        C      0.000000000000     0.000000000000     0.388200000000    -0.102216   
C        C      0.000000000000     0.000000000000     0.445500000000    -0.102216   
C        C      0.000000000000     0.000000000000     0.611800000000    -0.102216   
C        C      0.000000000000     0.000000000000     0.554500000000    -0.102216   
C        C      0.000000000000     0.000000000000     0.111800000000    -0.102216   
C        C      0.000000000000     0.000000000000     0.054500000000    -0.102216   
C        C      0.563800000000     0.000000000000     0.750000000000    -0.102216   
C        C      0.436200000000     0.000000000000     0.750000000000    -0.102216   
C        C      0.000000000000     0.563800000000     0.250000000000    -0.102216   
C        C      0.000000000000     0.436200000000     0.250000000000    -0.102216   
C        C      0.436200000000     0.000000000000     0.250000000000    -0.102216   
C        C      0.563800000000     0.000000000000     0.250000000000    -0.102216   
C        C      0.000000000000     0.436200000000     0.750000000000    -0.102216   
C        C      0.000000000000     0.563800000000     0.750000000000    -0.102216   
N        N      0.747600000000     0.039500000000     0.770000000000    -0.162726   
N        N      0.252400000000     0.960500000000     0.770000000000    -0.162726   
N        N      0.960500000000     0.747600000000     0.270000000000    -0.162726   
N        N      0.039500000000     0.252400000000     0.270000000000    -0.162726   
N        N      0.252400000000     0.039500000000     0.730000000000    -0.162726   
N        N      0.747600000000     0.960500000000     0.730000000000    -0.162726   
N        N      0.039500000000     0.747600000000     0.230000000000    -0.162726   
N        N      0.960500000000     0.252400000000     0.230000000000    -0.162726   
N        N      0.252400000000     0.960500000000     0.230000000000    -0.162726   
N        N      0.747600000000     0.039500000000     0.230000000000    -0.162726   
N        N      0.039500000000     0.252400000000     0.730000000000    -0.162726   
N        N      0.960500000000     0.747600000000     0.730000000000    -0.162726   
N        N      0.747600000000     0.960500000000     0.270000000000    -0.162726   
N        N      0.252400000000     0.039500000000     0.270000000000    -0.162726   
N        N      0.960500000000     0.252400000000     0.770000000000    -0.162726   
N        N      0.039500000000     0.747600000000     0.770000000000    -0.162726   
O        O      0.930800000000     0.069200000000     0.865260000000    -0.324844   
O        O      0.069200000000     0.930800000000     0.865260000000    -0.324844   
O        O      0.930800000000     0.930800000000     0.365260000000    -0.324844   
O        O      0.069200000000     0.069200000000     0.365260000000    -0.324844   
O        O      0.069200000000     0.069200000000     0.634740000000    -0.324844   
O        O      0.930800000000     0.930800000000     0.634740000000    -0.324844   
O        O      0.069200000000     0.930800000000     0.134740000000    -0.324844   
O        O      0.930800000000     0.069200000000     0.134740000000    -0.324844   
O        O      0.000000000000     0.000000000000     0.750000000000    -0.324844   
O        O      0.000000000000     0.000000000000     0.250000000000    -0.324844   


