data_YUBFOR_original

_audit_creation_method RASPA-1.0
_audit_creation_date 2022-1-30
_audit_author_name 'Felipe Lopes de Oliveira <felipe.lopes.oliveira@ibm.com>'

_cell_length_a    11.3469
_cell_length_b    12.2871
_cell_length_c    12.2871
_cell_angle_alpha 110.969
_cell_angle_beta  107.928
_cell_angle_gamma 107.928
_cell_volume      1342.99

_symmetry_cell_setting          triclinic
_symmetry_space_group_name_Hall 'P 1'
_symmetry_space_group_name_H-M  'P 1'
_symmetry_Int_Tables_number     1

_symmetry_equiv_pos_as_xyz 'x,y,z'

loop_
_atom_site_label
_atom_site_type_symbol
_atom_site_fract_x
_atom_site_fract_y
_atom_site_fract_z
_atom_site_charge
Zn       Zn     0.687620000000     0.062250000000     0.535240000000     0.253272   
Zn       Zn     0.625370000000     0.472990000000     0.937750000000     0.253272   
Zn       Zn     0.152380000000     0.464760000000     0.527010000000     0.253272   
Zn       Zn     0.312380000000     0.937750000000     0.464760000000     0.253272   
Zn       Zn     0.374630000000     0.527010000000     0.062250000000     0.253272   
Zn       Zn     0.847620000000     0.535240000000     0.472990000000     0.253272   
H        H      0.268600000000     0.081900000000     0.670600000000     0.219967   
H        H      0.361600000000     0.175700000000     0.823700000000     0.219967   
H        H      0.319100000000     0.234100000000     0.732600000000     0.219967   
H        H      0.871200000000     0.317800000000     0.759900000000     0.219967   
H        H      0.846900000000     0.440800000000     0.814800000000     0.219967   
H        H      0.883400000000     0.376700000000     0.901400000000     0.219967   
H        H      0.186700000000     0.588700000000     0.918100000000     0.219967   
H        H      0.185900000000     0.648000000000     0.824300000000     0.219967   
H        H      0.085000000000     0.498500000000     0.765900000000     0.219967   
H        H      0.553400000000     0.442100000000     0.682200000000     0.219967   
H        H      0.406100000000     0.374000000000     0.559200000000     0.219967   
H        H      0.506700000000     0.524700000000     0.623300000000     0.219967   
H        H      0.598000000000     0.329400000000     0.411300000000     0.219967   
H        H      0.537900000000     0.176300000000     0.352000000000     0.219967   
H        H      0.586500000000     0.267400000000     0.501500000000     0.219967   
H        H      0.111300000000     0.240100000000     0.557900000000     0.219967   
H        H      0.032100000000     0.185200000000     0.626000000000     0.219967   
H        H      0.982000000000     0.098600000000     0.475300000000     0.219967   
H        H      0.731400000000     0.918100000000     0.329400000000     0.219967   
H        H      0.638400000000     0.824300000000     0.176300000000     0.219967   
H        H      0.680900000000     0.765900000000     0.267400000000     0.219967   
H        H      0.128800000000     0.682200000000     0.240100000000     0.219967   
H        H      0.153100000000     0.559200000000     0.185200000000     0.219967   
H        H      0.116600000000     0.623300000000     0.098600000000     0.219967   
H        H      0.813300000000     0.411300000000     0.081900000000     0.219967   
H        H      0.814100000000     0.352000000000     0.175700000000     0.219967   
H        H      0.915000000000     0.501500000000     0.234100000000     0.219967   
H        H      0.446600000000     0.557900000000     0.317800000000     0.219967   
H        H      0.593900000000     0.626000000000     0.440800000000     0.219967   
H        H      0.493300000000     0.475300000000     0.376700000000     0.219967   
H        H      0.402000000000     0.670600000000     0.588700000000     0.219967   
H        H      0.462100000000     0.823700000000     0.648000000000     0.219967   
H        H      0.413500000000     0.732600000000     0.498500000000     0.219967   
H        H      0.888700000000     0.759900000000     0.442100000000     0.219967   
H        H      0.967900000000     0.814800000000     0.374000000000     0.219967   
H        H      0.018000000000     0.901400000000     0.524700000000     0.219967   
C        C      0.344100000000     0.167900000000     0.739100000000    -0.237202   
C        C      0.472400000000     0.186800000000     0.724100000000    -0.237202   
C        C      0.682800000000     0.270300000000     0.756400000000    -0.237202   
C        C      0.834500000000     0.359300000000     0.813200000000    -0.237202   
C        C      0.176200000000     0.571200000000     0.832100000000    -0.237202   
C        C      0.285600000000     0.537300000000     0.813200000000    -0.237202   
C        C      0.412500000000     0.486100000000     0.729700000000    -0.237202   
C        C      0.475200000000     0.453900000000     0.640700000000    -0.237202   
C        C      0.605000000000     0.260900000000     0.428800000000    -0.237202   
C        C      0.748300000000     0.275900000000     0.462700000000    -0.237202   
C        C      0.926400000000     0.243600000000     0.513900000000    -0.237202   
C        C      0.021300000000     0.186800000000     0.546100000000    -0.237202   
C        C      0.655900000000     0.832100000000     0.260900000000    -0.237202   
C        C      0.527600000000     0.813200000000     0.275900000000    -0.237202   
C        C      0.317200000000     0.729700000000     0.243600000000    -0.237202   
C        C      0.165500000000     0.640700000000     0.186800000000    -0.237202   
C        C      0.823800000000     0.428800000000     0.167900000000    -0.237202   
C        C      0.714400000000     0.462700000000     0.186800000000    -0.237202   
C        C      0.587500000000     0.513900000000     0.270300000000    -0.237202   
C        C      0.524800000000     0.546100000000     0.359300000000    -0.237202   
C        C      0.395000000000     0.739100000000     0.571200000000    -0.237202   
C        C      0.251700000000     0.724100000000     0.537300000000    -0.237202   
C        C      0.073600000000     0.756400000000     0.486100000000    -0.237202   
C        C      0.978700000000     0.813200000000     0.453900000000    -0.237202   
N        N      0.614600000000     0.152800000000     0.649800000000    -0.208088   
N        N      0.478100000000     0.099100000000     0.629400000000    -0.208088   
N        N      0.597200000000     0.297300000000     0.805900000000    -0.208088   
N        N      0.461800000000     0.497000000000     0.847200000000    -0.208088   
N        N      0.379000000000     0.530300000000     0.900900000000    -0.208088   
N        N      0.299900000000     0.508600000000     0.702700000000    -0.208088   
N        N      0.964800000000     0.350200000000     0.503000000000    -0.208088   
N        N      0.848700000000     0.370600000000     0.469700000000    -0.208088   
N        N      0.791300000000     0.194100000000     0.491400000000    -0.208088   
N        N      0.385400000000     0.847200000000     0.350200000000    -0.208088   
N        N      0.521900000000     0.900900000000     0.370600000000    -0.208088   
N        N      0.402800000000     0.702700000000     0.194100000000    -0.208088   
N        N      0.538200000000     0.503000000000     0.152800000000    -0.208088   
N        N      0.621000000000     0.469700000000     0.099100000000    -0.208088   
N        N      0.700100000000     0.491400000000     0.297300000000    -0.208088   
N        N      0.035200000000     0.649800000000     0.497000000000    -0.208088   
N        N      0.151300000000     0.629400000000     0.530300000000    -0.208088   
N        N      0.208700000000     0.805900000000     0.508600000000    -0.208088   


