data_ZEDROR_original

_audit_creation_method RASPA-1.0
_audit_creation_date 2022-1-29
_audit_author_name 'Felipe Lopes de Oliveira <felipe.lopes.oliveira@ibm.com>'

_cell_length_a    10.8471
_cell_length_b    18.232
_cell_length_c    18.894
_cell_angle_alpha 108.711
_cell_angle_beta  90
_cell_angle_gamma 90
_cell_volume      3539.08

_symmetry_cell_setting          triclinic
_symmetry_space_group_name_Hall 'P 1'
_symmetry_space_group_name_H-M  'P 1'
_symmetry_Int_Tables_number     1

_symmetry_equiv_pos_as_xyz 'x,y,z'

loop_
_atom_site_label
_atom_site_type_symbol
_atom_site_fract_x
_atom_site_fract_y
_atom_site_fract_z
_atom_site_charge
Zn       Zn     0.804820000000     0.683630000000     0.971980000000     0.471044   
Zn       Zn     0.806030000000     0.788740000000     0.874930000000     0.471044   
Zn       Zn     0.695180000000     0.183630000000     0.471980000000     0.471044   
Zn       Zn     0.693970000000     0.288740000000     0.374930000000     0.471044   
Zn       Zn     0.304820000000     0.816370000000     0.528020000000     0.471044   
Zn       Zn     0.306030000000     0.711260000000     0.625070000000     0.471044   
Zn       Zn     0.195180000000     0.316370000000     0.028020000000     0.471044   
Zn       Zn     0.193970000000     0.211260000000     0.125070000000     0.471044   
H        H      0.492400000000     0.385400000000     0.317600000000     0.0923204  
H        H      0.538600000000     0.458900000000     0.231400000000     0.0923204  
H        H      0.914400000000     0.332500000000     0.310300000000     0.0923204  
H        H      0.927100000000     0.334800000000     0.226700000000     0.0923204  
H        H      0.950000000000     0.411700000000     0.295900000000     0.0923204  
H        H      0.830900000000     0.407600000000     0.148400000000     0.0923204  
H        H      0.724100000000     0.469100000000     0.152400000000     0.0923204  
H        H      0.830800000000     0.567100000000     0.234700000000     0.0923204  
H        H      0.922600000000     0.508600000000     0.256000000000     0.0923204  
H        H      0.014000000000     0.475700000000     0.136000000000     0.0923204  
H        H      0.026600000000     0.566600000000     0.178900000000     0.0923204  
H        H      0.852600000000     0.432600000000     0.022200000000     0.0923204  
H        H      0.764400000000     0.504400000000     0.943000000000     0.0923204  
H        H      0.913300000000     0.727800000000     0.122400000000     0.0923204  
H        H      0.900400000000     0.691300000000     0.188600000000     0.0923204  
H        H      0.026200000000     0.681300000000     0.142200000000     0.0923204  
H        H      0.712300000000     0.995000000000     0.053100000000     0.0923204  
H        H      0.683500000000     0.103900000000     0.157500000000     0.0923204  
H        H      0.757700000000     0.976400000000     0.292200000000     0.0923204  
H        H      0.791500000000     0.868700000000     0.187700000000     0.0923204  
H        H      0.201000000000     0.783000000000     0.842200000000     0.0923204  
H        H      0.414800000000     0.772100000000     0.837500000000     0.0923204  
H        H      0.410500000000     0.693100000000     0.013500000000     0.0923204  
H        H      0.196600000000     0.701900000000     0.018300000000     0.0923204  
H        H      0.007600000000     0.885400000000     0.817600000000     0.0923204  
H        H      0.961400000000     0.958900000000     0.731400000000     0.0923204  
H        H      0.585600000000     0.832500000000     0.810300000000     0.0923204  
H        H      0.572900000000     0.834800000000     0.726700000000     0.0923204  
H        H      0.550000000000     0.911700000000     0.795900000000     0.0923204  
H        H      0.669100000000     0.907600000000     0.648400000000     0.0923204  
H        H      0.775900000000     0.969100000000     0.652400000000     0.0923204  
H        H      0.669200000000     0.067100000000     0.734700000000     0.0923204  
H        H      0.577400000000     0.008600000000     0.756000000000     0.0923204  
H        H      0.486000000000     0.975700000000     0.636000000000     0.0923204  
H        H      0.473400000000     0.066600000000     0.678900000000     0.0923204  
H        H      0.647400000000     0.932600000000     0.522200000000     0.0923204  
H        H      0.735600000000     0.004400000000     0.443000000000     0.0923204  
H        H      0.586700000000     0.227800000000     0.622400000000     0.0923204  
H        H      0.599600000000     0.191300000000     0.688600000000     0.0923204  
H        H      0.473800000000     0.181300000000     0.642200000000     0.0923204  
H        H      0.787700000000     0.495000000000     0.553100000000     0.0923204  
H        H      0.816500000000     0.603900000000     0.657500000000     0.0923204  
H        H      0.742300000000     0.476400000000     0.792200000000     0.0923204  
H        H      0.708500000000     0.368700000000     0.687700000000     0.0923204  
H        H      0.299000000000     0.283000000000     0.342200000000     0.0923204  
H        H      0.085200000000     0.272100000000     0.337500000000     0.0923204  
H        H      0.089500000000     0.193100000000     0.513500000000     0.0923204  
H        H      0.303400000000     0.201900000000     0.518300000000     0.0923204  
H        H      0.992400000000     0.114600000000     0.182400000000     0.0923204  
H        H      0.038600000000     0.041100000000     0.268600000000     0.0923204  
H        H      0.414400000000     0.167500000000     0.189700000000     0.0923204  
H        H      0.427100000000     0.165200000000     0.273300000000     0.0923204  
H        H      0.450000000000     0.088300000000     0.204100000000     0.0923204  
H        H      0.330900000000     0.092400000000     0.351600000000     0.0923204  
H        H      0.224100000000     0.030900000000     0.347600000000     0.0923204  
H        H      0.330800000000     0.932900000000     0.265300000000     0.0923204  
H        H      0.422600000000     0.991400000000     0.244000000000     0.0923204  
H        H      0.514000000000     0.024300000000     0.364000000000     0.0923204  
H        H      0.526600000000     0.933400000000     0.321100000000     0.0923204  
H        H      0.352600000000     0.067400000000     0.477800000000     0.0923204  
H        H      0.264400000000     0.995600000000     0.557000000000     0.0923204  
H        H      0.413300000000     0.772200000000     0.377600000000     0.0923204  
H        H      0.400400000000     0.808700000000     0.311400000000     0.0923204  
H        H      0.526200000000     0.818700000000     0.357800000000     0.0923204  
H        H      0.212300000000     0.505000000000     0.446900000000     0.0923204  
H        H      0.183500000000     0.396100000000     0.342500000000     0.0923204  
H        H      0.257700000000     0.523600000000     0.207800000000     0.0923204  
H        H      0.291500000000     0.631300000000     0.312300000000     0.0923204  
H        H      0.701000000000     0.717000000000     0.657800000000     0.0923204  
H        H      0.914800000000     0.727900000000     0.662500000000     0.0923204  
H        H      0.910500000000     0.806900000000     0.486500000000     0.0923204  
H        H      0.696600000000     0.798100000000     0.481700000000     0.0923204  
H        H      0.507600000000     0.614600000000     0.682400000000     0.0923204  
H        H      0.461400000000     0.541100000000     0.768600000000     0.0923204  
H        H      0.085600000000     0.667500000000     0.689700000000     0.0923204  
H        H      0.072900000000     0.665200000000     0.773300000000     0.0923204  
H        H      0.050000000000     0.588300000000     0.704100000000     0.0923204  
H        H      0.169100000000     0.592400000000     0.851600000000     0.0923204  
H        H      0.275900000000     0.530900000000     0.847600000000     0.0923204  
H        H      0.169200000000     0.432900000000     0.765300000000     0.0923204  
H        H      0.077400000000     0.491400000000     0.744000000000     0.0923204  
H        H      0.986000000000     0.524300000000     0.864000000000     0.0923204  
H        H      0.973400000000     0.433400000000     0.821100000000     0.0923204  
H        H      0.147400000000     0.567400000000     0.977800000000     0.0923204  
H        H      0.235600000000     0.495600000000     0.057000000000     0.0923204  
H        H      0.086700000000     0.272200000000     0.877600000000     0.0923204  
H        H      0.099600000000     0.308700000000     0.811400000000     0.0923204  
H        H      0.973800000000     0.318700000000     0.857800000000     0.0923204  
H        H      0.287700000000     0.005000000000     0.946900000000     0.0923204  
H        H      0.316500000000     0.896100000000     0.842500000000     0.0923204  
H        H      0.242300000000     0.023600000000     0.707800000000     0.0923204  
H        H      0.208500000000     0.131300000000     0.812300000000     0.0923204  
H        H      0.799000000000     0.217000000000     0.157800000000     0.0923204  
H        H      0.585200000000     0.227900000000     0.162500000000     0.0923204  
H        H      0.589500000000     0.306900000000     0.986500000000     0.0923204  
H        H      0.803400000000     0.298100000000     0.981700000000     0.0923204  
C        C      0.571400000000     0.392000000000     0.298900000000    -0.000218572
C        C      0.596500000000     0.432000000000     0.251700000000    -0.000218572
C        C      0.768700000000     0.384000000000     0.277700000000    -0.000218572
C        C      0.901300000000     0.364000000000     0.277600000000    -0.000218572
C        C      0.786000000000     0.452300000000     0.182500000000    -0.000218572
C        C      0.876600000000     0.517800000000     0.214400000000    -0.000218572
C        C      0.967100000000     0.524700000000     0.155400000000    -0.000218572
C        C      0.854300000000     0.487100000000     0.032200000000    -0.000218572
C        C      0.806400000000     0.526600000000     0.989100000000    -0.000218572
C        C      0.888600000000     0.610700000000     0.084900000000    -0.000218572
C        C      0.936300000000     0.684100000000     0.139200000000    -0.000218572
C        C      0.780600000000     0.852700000000     0.042200000000    -0.000218572
C        C      0.757400000000     0.921300000000     0.110000000000    -0.000218572
C        C      0.723300000000     0.991300000000     0.101700000000    -0.000218572
C        C      0.705000000000     0.055800000000     0.163800000000    -0.000218572
C        C      0.717800000000     0.050800000000     0.234700000000    -0.000218572
C        C      0.698100000000     0.121700000000     0.302000000000    -0.000218572
C        C      0.749600000000     0.980500000000     0.243500000000    -0.000218572
C        C      0.769300000000     0.916600000000     0.181400000000    -0.000218572
C        C      0.040400000000     0.743600000000     0.929400000000    -0.000218572
C        C      0.177900000000     0.742800000000     0.930200000000    -0.000218572
C        C      0.243300000000     0.764200000000     0.876900000000    -0.000218572
C        C      0.370100000000     0.758100000000     0.874400000000    -0.000218572
C        C      0.432600000000     0.731800000000     0.925200000000    -0.000218572
C        C      0.570800000000     0.727300000000     0.923300000000    -0.000218572
C        C      0.367600000000     0.711100000000     0.978500000000    -0.000218572
C        C      0.240800000000     0.716300000000     0.981400000000    -0.000218572
C        C      0.928600000000     0.892000000000     0.798900000000    -0.000218572
C        C      0.903500000000     0.932000000000     0.751700000000    -0.000218572
C        C      0.731300000000     0.884000000000     0.777700000000    -0.000218572
C        C      0.598700000000     0.864000000000     0.777600000000    -0.000218572
C        C      0.714000000000     0.952300000000     0.682500000000    -0.000218572
C        C      0.623400000000     0.017800000000     0.714400000000    -0.000218572
C        C      0.532900000000     0.024700000000     0.655400000000    -0.000218572
C        C      0.645700000000     0.987100000000     0.532200000000    -0.000218572
C        C      0.693600000000     0.026600000000     0.489100000000    -0.000218572
C        C      0.611400000000     0.110700000000     0.584900000000    -0.000218572
C        C      0.563700000000     0.184100000000     0.639200000000    -0.000218572
C        C      0.719400000000     0.352700000000     0.542200000000    -0.000218572
C        C      0.742600000000     0.421300000000     0.610000000000    -0.000218572
C        C      0.776700000000     0.491300000000     0.601700000000    -0.000218572
C        C      0.795000000000     0.555800000000     0.663800000000    -0.000218572
C        C      0.782200000000     0.550800000000     0.734700000000    -0.000218572
C        C      0.801900000000     0.621700000000     0.802000000000    -0.000218572
C        C      0.750400000000     0.480500000000     0.743500000000    -0.000218572
C        C      0.730700000000     0.416600000000     0.681400000000    -0.000218572
C        C      0.459600000000     0.243600000000     0.429400000000    -0.000218572
C        C      0.322100000000     0.242800000000     0.430200000000    -0.000218572
C        C      0.256700000000     0.264200000000     0.376900000000    -0.000218572
C        C      0.129900000000     0.258100000000     0.374400000000    -0.000218572
C        C      0.067400000000     0.231800000000     0.425200000000    -0.000218572
C        C      0.929200000000     0.227300000000     0.423300000000    -0.000218572
C        C      0.132400000000     0.211100000000     0.478500000000    -0.000218572
C        C      0.259200000000     0.216300000000     0.481400000000    -0.000218572
C        C      0.071400000000     0.108000000000     0.201100000000    -0.000218572
C        C      0.096500000000     0.068000000000     0.248300000000    -0.000218572
C        C      0.268700000000     0.116000000000     0.222300000000    -0.000218572
C        C      0.401300000000     0.136000000000     0.222400000000    -0.000218572
C        C      0.286000000000     0.047700000000     0.317500000000    -0.000218572
C        C      0.376600000000     0.982200000000     0.285600000000    -0.000218572
C        C      0.467100000000     0.975300000000     0.344600000000    -0.000218572
C        C      0.354300000000     0.012900000000     0.467800000000    -0.000218572
C        C      0.306400000000     0.973400000000     0.510900000000    -0.000218572
C        C      0.388600000000     0.889300000000     0.415100000000    -0.000218572
C        C      0.436300000000     0.815900000000     0.360800000000    -0.000218572
C        C      0.280600000000     0.647300000000     0.457800000000    -0.000218572
C        C      0.257400000000     0.578700000000     0.390000000000    -0.000218572
C        C      0.223300000000     0.508700000000     0.398300000000    -0.000218572
C        C      0.205000000000     0.444200000000     0.336200000000    -0.000218572
C        C      0.217800000000     0.449200000000     0.265300000000    -0.000218572
C        C      0.198100000000     0.378300000000     0.198000000000    -0.000218572
C        C      0.249600000000     0.519500000000     0.256500000000    -0.000218572
C        C      0.269300000000     0.583400000000     0.318600000000    -0.000218572
C        C      0.540400000000     0.756400000000     0.570600000000    -0.000218572
C        C      0.677900000000     0.757200000000     0.569800000000    -0.000218572
C        C      0.743300000000     0.735800000000     0.623100000000    -0.000218572
C        C      0.870100000000     0.741900000000     0.625600000000    -0.000218572
C        C      0.932600000000     0.768200000000     0.574800000000    -0.000218572
C        C      0.070800000000     0.772700000000     0.576700000000    -0.000218572
C        C      0.867600000000     0.788900000000     0.521500000000    -0.000218572
C        C      0.740800000000     0.783700000000     0.518600000000    -0.000218572
C        C      0.428600000000     0.608000000000     0.701100000000    -0.000218572
C        C      0.403500000000     0.568000000000     0.748300000000    -0.000218572
C        C      0.231300000000     0.616000000000     0.722300000000    -0.000218572
C        C      0.098700000000     0.636000000000     0.722400000000    -0.000218572
C        C      0.214000000000     0.547700000000     0.817500000000    -0.000218572
C        C      0.123400000000     0.482200000000     0.785600000000    -0.000218572
C        C      0.032900000000     0.475300000000     0.844600000000    -0.000218572
C        C      0.145700000000     0.512900000000     0.967800000000    -0.000218572
C        C      0.193600000000     0.473400000000     0.010900000000    -0.000218572
C        C      0.111400000000     0.389300000000     0.915100000000    -0.000218572
C        C      0.063700000000     0.315900000000     0.860800000000    -0.000218572
C        C      0.219400000000     0.147300000000     0.957800000000    -0.000218572
C        C      0.242600000000     0.078700000000     0.890000000000    -0.000218572
C        C      0.276700000000     0.008700000000     0.898300000000    -0.000218572
C        C      0.295000000000     0.944200000000     0.836200000000    -0.000218572
C        C      0.282200000000     0.949200000000     0.765300000000    -0.000218572
C        C      0.301900000000     0.878300000000     0.698000000000    -0.000218572
C        C      0.250400000000     0.019500000000     0.756500000000    -0.000218572
C        C      0.230700000000     0.083400000000     0.818600000000    -0.000218572
C        C      0.959600000000     0.256400000000     0.070600000000    -0.000218572
C        C      0.822100000000     0.257200000000     0.069800000000    -0.000218572
C        C      0.756700000000     0.235800000000     0.123100000000    -0.000218572
C        C      0.629900000000     0.241900000000     0.125600000000    -0.000218572
C        C      0.567400000000     0.268200000000     0.074800000000    -0.000218572
C        C      0.429200000000     0.272700000000     0.076700000000    -0.000218572
C        C      0.632400000000     0.288900000000     0.021500000000    -0.000218572
C        C      0.759200000000     0.283700000000     0.018600000000    -0.000218572
N        N      0.681700000000     0.362150000000     0.315290000000    -0.177354   
N        N      0.721300000000     0.426700000000     0.238500000000    -0.177354   
N        N      0.906000000000     0.541100000000     0.093100000000    -0.177354   
N        N      0.828400000000     0.604100000000     0.022880000000    -0.177354   
N        N      0.818300000000     0.862150000000     0.815290000000    -0.177354   
N        N      0.778700000000     0.926700000000     0.738500000000    -0.177354   
N        N      0.594000000000     0.041100000000     0.593100000000    -0.177354   
N        N      0.671600000000     0.104100000000     0.522880000000    -0.177354   
N        N      0.181700000000     0.137850000000     0.184710000000    -0.177354   
N        N      0.221300000000     0.073300000000     0.261500000000    -0.177354   
N        N      0.406000000000     0.958900000000     0.406900000000    -0.177354   
N        N      0.328400000000     0.895900000000     0.477120000000    -0.177354   
N        N      0.318300000000     0.637850000000     0.684710000000    -0.177354   
N        N      0.278700000000     0.573300000000     0.761500000000    -0.177354   
N        N      0.094000000000     0.458900000000     0.906900000000    -0.177354   
N        N      0.171600000000     0.395900000000     0.977120000000    -0.177354   
O        O      0.795100000000     0.789220000000     0.052100000000    -0.305308   
O        O      0.784500000000     0.864710000000     0.981400000000    -0.305308   
O        O      0.685500000000     0.184930000000     0.290770000000    -0.305308   
O        O      0.696600000000     0.111300000000     0.363890000000    -0.305308   
O        O      0.988600000000     0.782420000000     0.894670000000    -0.305308   
O        O      0.987600000000     0.702900000000     0.962500000000    -0.305308   
O        O      0.626500000000     0.759690000000     0.884130000000    -0.305308   
O        O      0.621200000000     0.692400000000     0.962800000000    -0.305308   
O        O      0.704900000000     0.289220000000     0.552100000000    -0.305308   
O        O      0.715500000000     0.364710000000     0.481400000000    -0.305308   
O        O      0.814500000000     0.684930000000     0.790770000000    -0.305308   
O        O      0.803400000000     0.611300000000     0.863890000000    -0.305308   
O        O      0.511400000000     0.282420000000     0.394670000000    -0.305308   
O        O      0.512400000000     0.202900000000     0.462500000000    -0.305308   
O        O      0.873500000000     0.259690000000     0.384130000000    -0.305308   
O        O      0.878800000000     0.192400000000     0.462800000000    -0.305308   
O        O      0.295100000000     0.710780000000     0.447900000000    -0.305308   
O        O      0.284500000000     0.635290000000     0.518600000000    -0.305308   
O        O      0.185500000000     0.315070000000     0.209230000000    -0.305308   
O        O      0.196600000000     0.388700000000     0.136110000000    -0.305308   
O        O      0.488600000000     0.717580000000     0.605330000000    -0.305308   
O        O      0.487600000000     0.797100000000     0.537500000000    -0.305308   
O        O      0.126500000000     0.740310000000     0.615870000000    -0.305308   
O        O      0.121200000000     0.807600000000     0.537200000000    -0.305308   
O        O      0.204900000000     0.210780000000     0.947900000000    -0.305308   
O        O      0.215500000000     0.135290000000     0.018600000000    -0.305308   
O        O      0.314500000000     0.815070000000     0.709230000000    -0.305308   
O        O      0.303400000000     0.888700000000     0.636110000000    -0.305308   
O        O      0.011400000000     0.217580000000     0.105330000000    -0.305308   
O        O      0.012400000000     0.297100000000     0.037500000000    -0.305308   
O        O      0.373500000000     0.240310000000     0.115870000000    -0.305308   
O        O      0.378800000000     0.307600000000     0.037200000000    -0.305308   


