data_ZESFUY_original

_audit_creation_method RASPA-1.0
_audit_creation_date 2022-1-30
_audit_author_name 'Felipe Lopes de Oliveira <felipe.lopes.oliveira@ibm.com>'

_cell_length_a    7.6775
_cell_length_b    11.3959
_cell_length_c    11.3959
_cell_angle_alpha 90
_cell_angle_beta  90
_cell_angle_gamma 90
_cell_volume      997.05

_symmetry_cell_setting          triclinic
_symmetry_space_group_name_Hall 'P 1'
_symmetry_space_group_name_H-M  'P 1'
_symmetry_Int_Tables_number     1

_symmetry_equiv_pos_as_xyz 'x,y,z'

loop_
_atom_site_label
_atom_site_type_symbol
_atom_site_fract_x
_atom_site_fract_y
_atom_site_fract_z
_atom_site_charge
Zn       Zn     0.000000000000     0.000000000000     0.000000000000     0.584257   
Si       Si     0.500000000000     0.000000000000     0.000000000000     3.18401    
H        H      0.742000000000     0.000000000000     0.795000000000     0.0799406  
H        H      0.737000000000     0.000000000000     0.585000000000     0.0799406  
H        H      0.742000000000     0.000000000000     0.205000000000     0.0799406  
H        H      0.737000000000     0.000000000000     0.415000000000     0.0799406  
H        H      0.742000000000     0.205000000000     0.000000000000     0.0799406  
H        H      0.737000000000     0.415000000000     0.000000000000     0.0799406  
H        H      0.742000000000     0.795000000000     0.000000000000     0.0799406  
H        H      0.737000000000     0.585000000000     0.000000000000     0.0799406  
H        H      0.258000000000     0.000000000000     0.795000000000     0.0799406  
H        H      0.263000000000     0.000000000000     0.585000000000     0.0799406  
H        H      0.258000000000     0.000000000000     0.205000000000     0.0799406  
H        H      0.263000000000     0.000000000000     0.415000000000     0.0799406  
H        H      0.258000000000     0.795000000000     0.000000000000     0.0799406  
H        H      0.263000000000     0.585000000000     0.000000000000     0.0799406  
H        H      0.258000000000     0.205000000000     0.000000000000     0.0799406  
H        H      0.263000000000     0.415000000000     0.000000000000     0.0799406  
C        C      0.000000000000     0.000000000000     0.566800000000     0.0112619  
C        C      0.000000000000     0.000000000000     0.433200000000     0.0112619  
C        C      0.000000000000     0.433200000000     0.000000000000     0.0112619  
C        C      0.000000000000     0.566800000000     0.000000000000     0.0112619  
C        C      0.858800000000     0.000000000000     0.750100000000     0.0112619  
C        C      0.855500000000     0.000000000000     0.628500000000     0.0112619  
C        C      0.858800000000     0.000000000000     0.249900000000     0.0112619  
C        C      0.855500000000     0.000000000000     0.371500000000     0.0112619  
C        C      0.858800000000     0.249900000000     0.000000000000     0.0112619  
C        C      0.855500000000     0.371500000000     0.000000000000     0.0112619  
C        C      0.858800000000     0.750100000000     0.000000000000     0.0112619  
C        C      0.855500000000     0.628500000000     0.000000000000     0.0112619  
C        C      0.141200000000     0.000000000000     0.750100000000     0.0112619  
C        C      0.144500000000     0.000000000000     0.628500000000     0.0112619  
C        C      0.141200000000     0.000000000000     0.249900000000     0.0112619  
C        C      0.144500000000     0.000000000000     0.371500000000     0.0112619  
C        C      0.141200000000     0.750100000000     0.000000000000     0.0112619  
C        C      0.144500000000     0.628500000000     0.000000000000     0.0112619  
C        C      0.141200000000     0.249900000000     0.000000000000     0.0112619  
C        C      0.144500000000     0.371500000000     0.000000000000     0.0112619  
N        N      0.000000000000     0.000000000000     0.810700000000    -0.148651   
N        N      0.000000000000     0.000000000000     0.189300000000    -0.148651   
N        N      0.000000000000     0.189300000000     0.000000000000    -0.148651   
N        N      0.000000000000     0.810700000000     0.000000000000    -0.148651   
F        F      0.728800000000     0.000000000000     0.000000000000    -0.779658   
F        F      0.271200000000     0.000000000000     0.000000000000    -0.779658   
F        F      0.500000000000     0.897000000000     0.897000000000    -0.779658   
F        F      0.500000000000     0.103000000000     0.103000000000    -0.779658   
F        F      0.500000000000     0.103000000000     0.897000000000    -0.779658   
F        F      0.500000000000     0.897000000000     0.103000000000    -0.779658   


