data_ZIDDIB_original

_audit_creation_method RASPA-1.0
_audit_creation_date 2022-1-29
_audit_author_name 'Felipe Lopes de Oliveira <felipe.lopes.oliveira@ibm.com>'

_cell_length_a    16.063
_cell_length_b    16.485
_cell_length_c    19.025
_cell_angle_alpha 90
_cell_angle_beta  90
_cell_angle_gamma 90
_cell_volume      5037.79

_symmetry_cell_setting          triclinic
_symmetry_space_group_name_Hall 'P 1'
_symmetry_space_group_name_H-M  'P 1'
_symmetry_Int_Tables_number     1

_symmetry_equiv_pos_as_xyz 'x,y,z'

loop_
_atom_site_label
_atom_site_type_symbol
_atom_site_fract_x
_atom_site_fract_y
_atom_site_fract_z
_atom_site_charge
In       In     0.544130000000     0.257460000000     0.012600000000     2.35633    
In       In     0.279610000000     0.930520000000     0.815760000000     2.35633    
In       In     0.955870000000     0.242540000000     0.012600000000     2.35633    
In       In     0.220390000000     0.569480000000     0.815760000000     2.35633    
In       In     0.455870000000     0.757460000000     0.487400000000     2.35633    
In       In     0.720390000000     0.430520000000     0.684240000000     2.35633    
In       In     0.044130000000     0.742540000000     0.487400000000     2.35633    
In       In     0.779610000000     0.069480000000     0.684240000000     2.35633    
In       In     0.455870000000     0.742540000000     0.987400000000     2.35633    
In       In     0.720390000000     0.069480000000     0.184240000000     2.35633    
In       In     0.044130000000     0.757460000000     0.987400000000     2.35633    
In       In     0.779610000000     0.430520000000     0.184240000000     2.35633    
In       In     0.544130000000     0.242540000000     0.512600000000     2.35633    
In       In     0.279610000000     0.569480000000     0.315760000000     2.35633    
In       In     0.955870000000     0.257460000000     0.512600000000     2.35633    
In       In     0.220390000000     0.930520000000     0.315760000000     2.35633    
H        H      0.202600000000     0.956100000000     0.066300000000     0.0305175  
H        H      0.286000000000     0.067300000000     0.100100000000     0.0305175  
H        H      0.392300000000     0.054700000000     0.911400000000     0.0305175  
H        H      0.025200000000     0.043800000000     0.695600000000     0.0305175  
H        H      0.972200000000     0.125000000000     0.784200000000     0.0305175  
H        H      0.165400000000     0.068200000000     0.905700000000     0.0305175  
H        H      0.429300000000     0.101800000000     0.600300000000     0.0305175  
H        H      0.560500000000     0.234000000000     0.782500000000     0.0305175  
H        H      0.461500000000     0.135800000000     0.807700000000     0.0305175  
H        H      0.297400000000     0.543900000000     0.066300000000     0.0305175  
H        H      0.214000000000     0.432700000000     0.100100000000     0.0305175  
H        H      0.107700000000     0.445300000000     0.911400000000     0.0305175  
H        H      0.474800000000     0.456200000000     0.695600000000     0.0305175  
H        H      0.527800000000     0.375000000000     0.784200000000     0.0305175  
H        H      0.334600000000     0.431800000000     0.905700000000     0.0305175  
H        H      0.070700000000     0.398200000000     0.600300000000     0.0305175  
H        H      0.939500000000     0.266000000000     0.782500000000     0.0305175  
H        H      0.038500000000     0.364200000000     0.807700000000     0.0305175  
H        H      0.797400000000     0.456100000000     0.433700000000     0.0305175  
H        H      0.714000000000     0.567300000000     0.399900000000     0.0305175  
H        H      0.607700000000     0.554700000000     0.588600000000     0.0305175  
H        H      0.974800000000     0.543800000000     0.804400000000     0.0305175  
H        H      0.027800000000     0.625000000000     0.715800000000     0.0305175  
H        H      0.834600000000     0.568200000000     0.594300000000     0.0305175  
H        H      0.570700000000     0.601800000000     0.899700000000     0.0305175  
H        H      0.439500000000     0.734000000000     0.717500000000     0.0305175  
H        H      0.538500000000     0.635800000000     0.692300000000     0.0305175  
H        H      0.702600000000     0.043900000000     0.433700000000     0.0305175  
H        H      0.786000000000     0.932700000000     0.399900000000     0.0305175  
H        H      0.892300000000     0.945300000000     0.588600000000     0.0305175  
H        H      0.525200000000     0.956200000000     0.804400000000     0.0305175  
H        H      0.472200000000     0.875000000000     0.715800000000     0.0305175  
H        H      0.665400000000     0.931800000000     0.594300000000     0.0305175  
H        H      0.929300000000     0.898200000000     0.899700000000     0.0305175  
H        H      0.060500000000     0.766000000000     0.717500000000     0.0305175  
H        H      0.961500000000     0.864200000000     0.692300000000     0.0305175  
H        H      0.797400000000     0.043900000000     0.933700000000     0.0305175  
H        H      0.714000000000     0.932700000000     0.899900000000     0.0305175  
H        H      0.607700000000     0.945300000000     0.088600000000     0.0305175  
H        H      0.974800000000     0.956200000000     0.304400000000     0.0305175  
H        H      0.027800000000     0.875000000000     0.215800000000     0.0305175  
H        H      0.834600000000     0.931800000000     0.094300000000     0.0305175  
H        H      0.570700000000     0.898200000000     0.399700000000     0.0305175  
H        H      0.439500000000     0.766000000000     0.217500000000     0.0305175  
H        H      0.538500000000     0.864200000000     0.192300000000     0.0305175  
H        H      0.702600000000     0.456100000000     0.933700000000     0.0305175  
H        H      0.786000000000     0.567300000000     0.899900000000     0.0305175  
H        H      0.892300000000     0.554700000000     0.088600000000     0.0305175  
H        H      0.525200000000     0.543800000000     0.304400000000     0.0305175  
H        H      0.472200000000     0.625000000000     0.215800000000     0.0305175  
H        H      0.665400000000     0.568200000000     0.094300000000     0.0305175  
H        H      0.929300000000     0.601800000000     0.399700000000     0.0305175  
H        H      0.060500000000     0.734000000000     0.217500000000     0.0305175  
H        H      0.961500000000     0.635800000000     0.192300000000     0.0305175  
H        H      0.202600000000     0.543900000000     0.566300000000     0.0305175  
H        H      0.286000000000     0.432700000000     0.600100000000     0.0305175  
H        H      0.392300000000     0.445300000000     0.411400000000     0.0305175  
H        H      0.025200000000     0.456200000000     0.195600000000     0.0305175  
H        H      0.972200000000     0.375000000000     0.284200000000     0.0305175  
H        H      0.165400000000     0.431800000000     0.405700000000     0.0305175  
H        H      0.429300000000     0.398200000000     0.100300000000     0.0305175  
H        H      0.560500000000     0.266000000000     0.282500000000     0.0305175  
H        H      0.461500000000     0.364200000000     0.307700000000     0.0305175  
H        H      0.297400000000     0.956100000000     0.566300000000     0.0305175  
H        H      0.214000000000     0.067300000000     0.600100000000     0.0305175  
H        H      0.107700000000     0.054700000000     0.411400000000     0.0305175  
H        H      0.474800000000     0.043800000000     0.195600000000     0.0305175  
H        H      0.527800000000     0.125000000000     0.284200000000     0.0305175  
H        H      0.334600000000     0.068200000000     0.405700000000     0.0305175  
H        H      0.070700000000     0.101800000000     0.100300000000     0.0305175  
H        H      0.939500000000     0.234000000000     0.282500000000     0.0305175  
H        H      0.038500000000     0.135800000000     0.307700000000     0.0305175  
C        C      0.192400000000     0.878000000000     0.946700000000     0.107798   
C        C      0.248800000000     0.946600000000     0.973600000000     0.107798   
C        C      0.241500000000     0.977400000000     0.035100000000     0.107798   
C        C      0.292100000000     0.043800000000     0.056000000000     0.107798   
C        C      0.349800000000     0.072300000000     0.009700000000     0.107798   
C        C      0.353200000000     0.036000000000     0.943600000000     0.107798   
C        C      0.407500000000     0.141400000000     0.028800000000     0.107798   
C        C      0.152300000000     0.938100000000     0.702300000000     0.107798   
C        C      0.122000000000     0.004200000000     0.753600000000     0.107798   
C        C      0.051400000000     0.047300000000     0.739100000000     0.107798   
C        C      0.020900000000     0.095700000000     0.791500000000     0.107798   
C        C      0.061600000000     0.101600000000     0.855100000000     0.107798   
C        C      0.135900000000     0.061400000000     0.864000000000     0.107798   
C        C      0.027200000000     0.151300000000     0.915200000000     0.107798   
C        C      0.371300000000     0.044300000000     0.721000000000     0.107798   
C        C      0.434000000000     0.110400000000     0.709000000000     0.107798   
C        C      0.453900000000     0.130600000000     0.636800000000     0.107798   
C        C      0.545300000000     0.228800000000     0.676100000000     0.107798   
C        C      0.531400000000     0.208300000000     0.746600000000     0.107798   
C        C      0.473400000000     0.149000000000     0.761200000000     0.107798   
C        C      0.602700000000     0.295900000000     0.655100000000     0.107798   
C        C      0.307600000000     0.622000000000     0.946700000000     0.107798   
C        C      0.251200000000     0.553400000000     0.973600000000     0.107798   
C        C      0.258500000000     0.522600000000     0.035100000000     0.107798   
C        C      0.207900000000     0.456200000000     0.056000000000     0.107798   
C        C      0.150200000000     0.427700000000     0.009700000000     0.107798   
C        C      0.146800000000     0.464000000000     0.943600000000     0.107798   
C        C      0.092500000000     0.358600000000     0.028800000000     0.107798   
C        C      0.347700000000     0.561900000000     0.702300000000     0.107798   
C        C      0.378000000000     0.495800000000     0.753600000000     0.107798   
C        C      0.448600000000     0.452700000000     0.739100000000     0.107798   
C        C      0.479100000000     0.404300000000     0.791500000000     0.107798   
C        C      0.438400000000     0.398400000000     0.855100000000     0.107798   
C        C      0.364100000000     0.438600000000     0.864000000000     0.107798   
C        C      0.472800000000     0.348700000000     0.915200000000     0.107798   
C        C      0.128700000000     0.455700000000     0.721000000000     0.107798   
C        C      0.066000000000     0.389600000000     0.709000000000     0.107798   
C        C      0.046100000000     0.369400000000     0.636800000000     0.107798   
C        C      0.954700000000     0.271200000000     0.676100000000     0.107798   
C        C      0.968600000000     0.291700000000     0.746600000000     0.107798   
C        C      0.026600000000     0.351000000000     0.761200000000     0.107798   
C        C      0.897300000000     0.204100000000     0.655100000000     0.107798   
C        C      0.807600000000     0.378000000000     0.553300000000     0.107798   
C        C      0.751200000000     0.446600000000     0.526400000000     0.107798   
C        C      0.758500000000     0.477400000000     0.464900000000     0.107798   
C        C      0.707900000000     0.543800000000     0.444000000000     0.107798   
C        C      0.650200000000     0.572300000000     0.490300000000     0.107798   
C        C      0.646800000000     0.536000000000     0.556400000000     0.107798   
C        C      0.592500000000     0.641400000000     0.471200000000     0.107798   
C        C      0.847700000000     0.438100000000     0.797700000000     0.107798   
C        C      0.878000000000     0.504200000000     0.746400000000     0.107798   
C        C      0.948600000000     0.547300000000     0.760900000000     0.107798   
C        C      0.979100000000     0.595700000000     0.708500000000     0.107798   
C        C      0.938400000000     0.601600000000     0.644900000000     0.107798   
C        C      0.864100000000     0.561400000000     0.636000000000     0.107798   
C        C      0.972800000000     0.651300000000     0.584800000000     0.107798   
C        C      0.628700000000     0.544300000000     0.779000000000     0.107798   
C        C      0.566000000000     0.610400000000     0.791000000000     0.107798   
C        C      0.546100000000     0.630600000000     0.863200000000     0.107798   
C        C      0.454700000000     0.728800000000     0.823900000000     0.107798   
C        C      0.468600000000     0.708300000000     0.753400000000     0.107798   
C        C      0.526600000000     0.649000000000     0.738800000000     0.107798   
C        C      0.397300000000     0.795900000000     0.844900000000     0.107798   
C        C      0.692400000000     0.122000000000     0.553300000000     0.107798   
C        C      0.748800000000     0.053400000000     0.526400000000     0.107798   
C        C      0.741500000000     0.022600000000     0.464900000000     0.107798   
C        C      0.792100000000     0.956200000000     0.444000000000     0.107798   
C        C      0.849800000000     0.927700000000     0.490300000000     0.107798   
C        C      0.853200000000     0.964000000000     0.556400000000     0.107798   
C        C      0.907500000000     0.858600000000     0.471200000000     0.107798   
C        C      0.652300000000     0.061900000000     0.797700000000     0.107798   
C        C      0.622000000000     0.995800000000     0.746400000000     0.107798   
C        C      0.551400000000     0.952700000000     0.760900000000     0.107798   
C        C      0.520900000000     0.904300000000     0.708500000000     0.107798   
C        C      0.561600000000     0.898400000000     0.644900000000     0.107798   
C        C      0.635900000000     0.938600000000     0.636000000000     0.107798   
C        C      0.527200000000     0.848700000000     0.584800000000     0.107798   
C        C      0.871300000000     0.955700000000     0.779000000000     0.107798   
C        C      0.934000000000     0.889600000000     0.791000000000     0.107798   
C        C      0.953900000000     0.869400000000     0.863200000000     0.107798   
C        C      0.045300000000     0.771200000000     0.823900000000     0.107798   
C        C      0.031400000000     0.791700000000     0.753400000000     0.107798   
C        C      0.973400000000     0.851000000000     0.738800000000     0.107798   
C        C      0.102700000000     0.704100000000     0.844900000000     0.107798   
C        C      0.807600000000     0.122000000000     0.053300000000     0.107798   
C        C      0.751200000000     0.053400000000     0.026400000000     0.107798   
C        C      0.758500000000     0.022600000000     0.964900000000     0.107798   
C        C      0.707900000000     0.956200000000     0.944000000000     0.107798   
C        C      0.650200000000     0.927700000000     0.990300000000     0.107798   
C        C      0.646800000000     0.964000000000     0.056400000000     0.107798   
C        C      0.592500000000     0.858600000000     0.971200000000     0.107798   
C        C      0.847700000000     0.061900000000     0.297700000000     0.107798   
C        C      0.878000000000     0.995800000000     0.246400000000     0.107798   
C        C      0.948600000000     0.952700000000     0.260900000000     0.107798   
C        C      0.979100000000     0.904300000000     0.208500000000     0.107798   
C        C      0.938400000000     0.898400000000     0.144900000000     0.107798   
C        C      0.864100000000     0.938600000000     0.136000000000     0.107798   
C        C      0.972800000000     0.848700000000     0.084800000000     0.107798   
C        C      0.628700000000     0.955700000000     0.279000000000     0.107798   
C        C      0.566000000000     0.889600000000     0.291000000000     0.107798   
C        C      0.546100000000     0.869400000000     0.363200000000     0.107798   
C        C      0.454700000000     0.771200000000     0.323900000000     0.107798   
C        C      0.468600000000     0.791700000000     0.253400000000     0.107798   
C        C      0.526600000000     0.851000000000     0.238800000000     0.107798   
C        C      0.397300000000     0.704100000000     0.344900000000     0.107798   
C        C      0.692400000000     0.378000000000     0.053300000000     0.107798   
C        C      0.748800000000     0.446600000000     0.026400000000     0.107798   
C        C      0.741500000000     0.477400000000     0.964900000000     0.107798   
C        C      0.792100000000     0.543800000000     0.944000000000     0.107798   
C        C      0.849800000000     0.572300000000     0.990300000000     0.107798   
C        C      0.853200000000     0.536000000000     0.056400000000     0.107798   
C        C      0.907500000000     0.641400000000     0.971200000000     0.107798   
C        C      0.652300000000     0.438100000000     0.297700000000     0.107798   
C        C      0.622000000000     0.504200000000     0.246400000000     0.107798   
C        C      0.551400000000     0.547300000000     0.260900000000     0.107798   
C        C      0.520900000000     0.595700000000     0.208500000000     0.107798   
C        C      0.561600000000     0.601600000000     0.144900000000     0.107798   
C        C      0.635900000000     0.561400000000     0.136000000000     0.107798   
C        C      0.527200000000     0.651300000000     0.084800000000     0.107798   
C        C      0.871300000000     0.544300000000     0.279000000000     0.107798   
C        C      0.934000000000     0.610400000000     0.291000000000     0.107798   
C        C      0.953900000000     0.630600000000     0.363200000000     0.107798   
C        C      0.045300000000     0.728800000000     0.323900000000     0.107798   
C        C      0.031400000000     0.708300000000     0.253400000000     0.107798   
C        C      0.973400000000     0.649000000000     0.238800000000     0.107798   
C        C      0.102700000000     0.795900000000     0.344900000000     0.107798   
C        C      0.192400000000     0.622000000000     0.446700000000     0.107798   
C        C      0.248800000000     0.553400000000     0.473600000000     0.107798   
C        C      0.241500000000     0.522600000000     0.535100000000     0.107798   
C        C      0.292100000000     0.456200000000     0.556000000000     0.107798   
C        C      0.349800000000     0.427700000000     0.509700000000     0.107798   
C        C      0.353200000000     0.464000000000     0.443600000000     0.107798   
C        C      0.407500000000     0.358600000000     0.528800000000     0.107798   
C        C      0.152300000000     0.561900000000     0.202300000000     0.107798   
C        C      0.122000000000     0.495800000000     0.253600000000     0.107798   
C        C      0.051400000000     0.452700000000     0.239100000000     0.107798   
C        C      0.020900000000     0.404300000000     0.291500000000     0.107798   
C        C      0.061600000000     0.398400000000     0.355100000000     0.107798   
C        C      0.135900000000     0.438600000000     0.364000000000     0.107798   
C        C      0.027200000000     0.348700000000     0.415200000000     0.107798   
C        C      0.371300000000     0.455700000000     0.221000000000     0.107798   
C        C      0.434000000000     0.389600000000     0.209000000000     0.107798   
C        C      0.453900000000     0.369400000000     0.136800000000     0.107798   
C        C      0.545300000000     0.271200000000     0.176100000000     0.107798   
C        C      0.531400000000     0.291700000000     0.246600000000     0.107798   
C        C      0.473400000000     0.351000000000     0.261200000000     0.107798   
C        C      0.602700000000     0.204100000000     0.155100000000     0.107798   
C        C      0.307600000000     0.878000000000     0.446700000000     0.107798   
C        C      0.251200000000     0.946600000000     0.473600000000     0.107798   
C        C      0.258500000000     0.977400000000     0.535100000000     0.107798   
C        C      0.207900000000     0.043800000000     0.556000000000     0.107798   
C        C      0.150200000000     0.072300000000     0.509700000000     0.107798   
C        C      0.146800000000     0.036000000000     0.443600000000     0.107798   
C        C      0.092500000000     0.141400000000     0.528800000000     0.107798   
C        C      0.347700000000     0.938100000000     0.202300000000     0.107798   
C        C      0.378000000000     0.004200000000     0.253600000000     0.107798   
C        C      0.448600000000     0.047300000000     0.239100000000     0.107798   
C        C      0.479100000000     0.095700000000     0.291500000000     0.107798   
C        C      0.438400000000     0.101600000000     0.355100000000     0.107798   
C        C      0.364100000000     0.061400000000     0.364000000000     0.107798   
C        C      0.472800000000     0.151300000000     0.415200000000     0.107798   
C        C      0.128700000000     0.044300000000     0.221000000000     0.107798   
C        C      0.066000000000     0.110400000000     0.209000000000     0.107798   
C        C      0.046100000000     0.130600000000     0.136800000000     0.107798   
C        C      0.954700000000     0.228800000000     0.176100000000     0.107798   
C        C      0.968600000000     0.208300000000     0.246600000000     0.107798   
C        C      0.026600000000     0.149000000000     0.261200000000     0.107798   
C        C      0.897300000000     0.295900000000     0.155100000000     0.107798   
N        N      0.302500000000     0.975400000000     0.924300000000    -0.314989   
N        N      0.167400000000     0.011800000000     0.813100000000    -0.314989   
N        N      0.507100000000     0.190100000000     0.622500000000    -0.314989   
N        N      0.197500000000     0.524600000000     0.924300000000    -0.314989   
N        N      0.332600000000     0.488200000000     0.813100000000    -0.314989   
N        N      0.992900000000     0.309900000000     0.622500000000    -0.314989   
N        N      0.697500000000     0.475400000000     0.575700000000    -0.314989   
N        N      0.832600000000     0.511800000000     0.686900000000    -0.314989   
N        N      0.492900000000     0.690100000000     0.877500000000    -0.314989   
N        N      0.802500000000     0.024600000000     0.575700000000    -0.314989   
N        N      0.667400000000     0.988200000000     0.686900000000    -0.314989   
N        N      0.007100000000     0.809900000000     0.877500000000    -0.314989   
N        N      0.697500000000     0.024600000000     0.075700000000    -0.314989   
N        N      0.832600000000     0.988200000000     0.186900000000    -0.314989   
N        N      0.492900000000     0.809900000000     0.377500000000    -0.314989   
N        N      0.802500000000     0.475400000000     0.075700000000    -0.314989   
N        N      0.667400000000     0.511800000000     0.186900000000    -0.314989   
N        N      0.007100000000     0.690100000000     0.377500000000    -0.314989   
N        N      0.302500000000     0.524600000000     0.424300000000    -0.314989   
N        N      0.167400000000     0.488200000000     0.313100000000    -0.314989   
N        N      0.507100000000     0.309900000000     0.122500000000    -0.314989   
N        N      0.197500000000     0.975400000000     0.424300000000    -0.314989   
N        N      0.332600000000     0.011800000000     0.313100000000    -0.314989   
N        N      0.992900000000     0.190100000000     0.122500000000    -0.314989   
O        O      0.200000000000     0.854500000000     0.883400000000    -0.52551    
O        O      0.143500000000     0.848500000000     0.990300000000    -0.52551    
O        O      0.394200000000     0.180900000000     0.080900000000    -0.52551    
O        O      0.465300000000     0.158100000000     0.986700000000    -0.52551    
O        O      0.211500000000     0.893200000000     0.725500000000    -0.52551    
O        O      0.114100000000     0.929000000000     0.647600000000    -0.52551    
O        O      0.971000000000     0.203300000000     0.899100000000    -0.52551    
O        O      0.052000000000     0.145300000000     0.976000000000    -0.52551    
O        O      0.366200000000     0.020600000000     0.785100000000    -0.52551    
O        O      0.332200000000     0.015200000000     0.675200000000    -0.52551    
O        O      0.639800000000     0.332000000000     0.704700000000    -0.52551    
O        O      0.607100000000     0.316000000000     0.593100000000    -0.52551    
O        O      0.300000000000     0.645500000000     0.883400000000    -0.52551    
O        O      0.356500000000     0.651500000000     0.990300000000    -0.52551    
O        O      0.105800000000     0.319100000000     0.080900000000    -0.52551    
O        O      0.034700000000     0.341900000000     0.986700000000    -0.52551    
O        O      0.288500000000     0.606800000000     0.725500000000    -0.52551    
O        O      0.385900000000     0.571000000000     0.647600000000    -0.52551    
O        O      0.529000000000     0.296700000000     0.899100000000    -0.52551    
O        O      0.448000000000     0.354700000000     0.976000000000    -0.52551    
O        O      0.133800000000     0.479400000000     0.785100000000    -0.52551    
O        O      0.167800000000     0.484800000000     0.675200000000    -0.52551    
O        O      0.860200000000     0.168000000000     0.704700000000    -0.52551    
O        O      0.892900000000     0.184000000000     0.593100000000    -0.52551    
O        O      0.800000000000     0.354500000000     0.616600000000    -0.52551    
O        O      0.856500000000     0.348500000000     0.509700000000    -0.52551    
O        O      0.605800000000     0.680900000000     0.419100000000    -0.52551    
O        O      0.534700000000     0.658100000000     0.513300000000    -0.52551    
O        O      0.788500000000     0.393200000000     0.774500000000    -0.52551    
O        O      0.885900000000     0.429000000000     0.852400000000    -0.52551    
O        O      0.029000000000     0.703300000000     0.600900000000    -0.52551    
O        O      0.948000000000     0.645300000000     0.524000000000    -0.52551    
O        O      0.633800000000     0.520600000000     0.714900000000    -0.52551    
O        O      0.667800000000     0.515200000000     0.824800000000    -0.52551    
O        O      0.360200000000     0.832000000000     0.795300000000    -0.52551    
O        O      0.392900000000     0.816000000000     0.906900000000    -0.52551    
O        O      0.700000000000     0.145500000000     0.616600000000    -0.52551    
O        O      0.643500000000     0.151500000000     0.509700000000    -0.52551    
O        O      0.894200000000     0.819100000000     0.419100000000    -0.52551    
O        O      0.965300000000     0.841900000000     0.513300000000    -0.52551    
O        O      0.711500000000     0.106800000000     0.774500000000    -0.52551    
O        O      0.614100000000     0.071000000000     0.852400000000    -0.52551    
O        O      0.471000000000     0.796700000000     0.600900000000    -0.52551    
O        O      0.552000000000     0.854700000000     0.524000000000    -0.52551    
O        O      0.866200000000     0.979400000000     0.714900000000    -0.52551    
O        O      0.832200000000     0.984800000000     0.824800000000    -0.52551    
O        O      0.139800000000     0.668000000000     0.795300000000    -0.52551    
O        O      0.107100000000     0.684000000000     0.906900000000    -0.52551    
O        O      0.800000000000     0.145500000000     0.116600000000    -0.52551    
O        O      0.856500000000     0.151500000000     0.009700000000    -0.52551    
O        O      0.605800000000     0.819100000000     0.919100000000    -0.52551    
O        O      0.534700000000     0.841900000000     0.013300000000    -0.52551    
O        O      0.788500000000     0.106800000000     0.274500000000    -0.52551    
O        O      0.885900000000     0.071000000000     0.352400000000    -0.52551    
O        O      0.029000000000     0.796700000000     0.100900000000    -0.52551    
O        O      0.948000000000     0.854700000000     0.024000000000    -0.52551    
O        O      0.633800000000     0.979400000000     0.214900000000    -0.52551    
O        O      0.667800000000     0.984800000000     0.324800000000    -0.52551    
O        O      0.360200000000     0.668000000000     0.295300000000    -0.52551    
O        O      0.392900000000     0.684000000000     0.406900000000    -0.52551    
O        O      0.700000000000     0.354500000000     0.116600000000    -0.52551    
O        O      0.643500000000     0.348500000000     0.009700000000    -0.52551    
O        O      0.894200000000     0.680900000000     0.919100000000    -0.52551    
O        O      0.965300000000     0.658100000000     0.013300000000    -0.52551    
O        O      0.711500000000     0.393200000000     0.274500000000    -0.52551    
O        O      0.614100000000     0.429000000000     0.352400000000    -0.52551    
O        O      0.471000000000     0.703300000000     0.100900000000    -0.52551    
O        O      0.552000000000     0.645300000000     0.024000000000    -0.52551    
O        O      0.866200000000     0.520600000000     0.214900000000    -0.52551    
O        O      0.832200000000     0.515200000000     0.324800000000    -0.52551    
O        O      0.139800000000     0.832000000000     0.295300000000    -0.52551    
O        O      0.107100000000     0.816000000000     0.406900000000    -0.52551    
O        O      0.200000000000     0.645500000000     0.383400000000    -0.52551    
O        O      0.143500000000     0.651500000000     0.490300000000    -0.52551    
O        O      0.394200000000     0.319100000000     0.580900000000    -0.52551    
O        O      0.465300000000     0.341900000000     0.486700000000    -0.52551    
O        O      0.211500000000     0.606800000000     0.225500000000    -0.52551    
O        O      0.114100000000     0.571000000000     0.147600000000    -0.52551    
O        O      0.971000000000     0.296700000000     0.399100000000    -0.52551    
O        O      0.052000000000     0.354700000000     0.476000000000    -0.52551    
O        O      0.366200000000     0.479400000000     0.285100000000    -0.52551    
O        O      0.332200000000     0.484800000000     0.175200000000    -0.52551    
O        O      0.639800000000     0.168000000000     0.204700000000    -0.52551    
O        O      0.607100000000     0.184000000000     0.093100000000    -0.52551    
O        O      0.300000000000     0.854500000000     0.383400000000    -0.52551    
O        O      0.356500000000     0.848500000000     0.490300000000    -0.52551    
O        O      0.105800000000     0.180900000000     0.580900000000    -0.52551    
O        O      0.034700000000     0.158100000000     0.486700000000    -0.52551    
O        O      0.288500000000     0.893200000000     0.225500000000    -0.52551    
O        O      0.385900000000     0.929000000000     0.147600000000    -0.52551    
O        O      0.529000000000     0.203300000000     0.399100000000    -0.52551    
O        O      0.448000000000     0.145300000000     0.476000000000    -0.52551    
O        O      0.133800000000     0.020600000000     0.285100000000    -0.52551    
O        O      0.167800000000     0.015200000000     0.175200000000    -0.52551    
O        O      0.860200000000     0.332000000000     0.204700000000    -0.52551    
O        O      0.892900000000     0.316000000000     0.093100000000    -0.52551    


