data_ZIF-6_original

_audit_creation_method RASPA-1.0
_audit_creation_date 2022-1-30
_audit_author_name 'Felipe Lopes de Oliveira <felipe.lopes.oliveira@ibm.com>'

_cell_length_a    18.515
_cell_length_b    18.515
_cell_length_c    20.245
_cell_angle_alpha 90
_cell_angle_beta  90
_cell_angle_gamma 90
_cell_volume      6940.09

_symmetry_cell_setting          triclinic
_symmetry_space_group_name_Hall 'P 1'
_symmetry_space_group_name_H-M  'P 1'
_symmetry_Int_Tables_number     1

_symmetry_equiv_pos_as_xyz 'x,y,z'

loop_
_atom_site_label
_atom_site_type_symbol
_atom_site_fract_x
_atom_site_fract_y
_atom_site_fract_z
_atom_site_charge
Zn       Zn     0.336530000000     0.413470000000     0.125000000000     0.341846   
Zn       Zn     0.836530000000     0.086530000000     0.375000000000     0.341846   
Zn       Zn     0.163470000000     0.586530000000     0.625000000000     0.341846   
Zn       Zn     0.663470000000     0.913470000000     0.875000000000     0.341846   
Zn       Zn     0.336530000000     0.586530000000     0.875000000000     0.341846   
Zn       Zn     0.663470000000     0.086530000000     0.125000000000     0.341846   
Zn       Zn     0.163470000000     0.413470000000     0.375000000000     0.341846   
Zn       Zn     0.836530000000     0.913470000000     0.625000000000     0.341846   
Zn       Zn     0.663470000000     0.586530000000     0.875000000000     0.341846   
Zn       Zn     0.163470000000     0.913470000000     0.625000000000     0.341846   
Zn       Zn     0.836530000000     0.413470000000     0.375000000000     0.341846   
Zn       Zn     0.336530000000     0.086530000000     0.125000000000     0.341846   
Zn       Zn     0.663470000000     0.413470000000     0.125000000000     0.341846   
Zn       Zn     0.336530000000     0.913470000000     0.875000000000     0.341846   
Zn       Zn     0.836530000000     0.586530000000     0.625000000000     0.341846   
Zn       Zn     0.163470000000     0.086530000000     0.375000000000     0.341846   
H        H      0.391100000000     0.500000000000     0.000000000000     0.0159887  
H        H      0.393000000000     0.250000000000     0.147500000000     0.0159887  
H        H      0.201000000000     0.316600000000     0.096100000000     0.0159887  
H        H      0.750000000000     0.141100000000     0.250000000000     0.0159887  
H        H      0.000000000000     0.143000000000     0.397500000000     0.0159887  
H        H      0.758900000000     0.943300000000     0.318700000000     0.0159887  
H        H      0.695600000000     0.941300000000     0.213100000000     0.0159887  
H        H      0.933400000000     0.951000000000     0.346100000000     0.0159887  
H        H      0.108900000000     0.500000000000     0.500000000000     0.0159887  
H        H      0.107000000000     0.750000000000     0.647500000000     0.0159887  
H        H      0.299000000000     0.683400000000     0.596100000000     0.0159887  
H        H      0.750000000000     0.858900000000     0.750000000000     0.0159887  
H        H      0.500000000000     0.857000000000     0.897500000000     0.0159887  
H        H      0.566600000000     0.049000000000     0.846100000000     0.0159887  
H        H      0.393000000000     0.750000000000     0.852500000000     0.0159887  
H        H      0.193300000000     0.508900000000     0.931300000000     0.0159887  
H        H      0.191300000000     0.445600000000     0.036900000000     0.0159887  
H        H      0.201000000000     0.683400000000     0.903900000000     0.0159887  
H        H      0.500000000000     0.143000000000     0.102500000000     0.0159887  
H        H      0.566600000000     0.951000000000     0.153900000000     0.0159887  
H        H      0.107000000000     0.250000000000     0.352500000000     0.0159887  
H        H      0.306700000000     0.491100000000     0.431300000000     0.0159887  
H        H      0.308700000000     0.554400000000     0.536900000000     0.0159887  
H        H      0.299000000000     0.316600000000     0.403900000000     0.0159887  
H        H      0.000000000000     0.857000000000     0.602500000000     0.0159887  
H        H      0.758900000000     0.056700000000     0.681300000000     0.0159887  
H        H      0.695600000000     0.058700000000     0.786900000000     0.0159887  
H        H      0.933400000000     0.049000000000     0.653900000000     0.0159887  
H        H      0.608900000000     0.500000000000     0.000000000000     0.0159887  
H        H      0.607000000000     0.750000000000     0.852500000000     0.0159887  
H        H      0.806700000000     0.508900000000     0.931300000000     0.0159887  
H        H      0.808700000000     0.445600000000     0.036900000000     0.0159887  
H        H      0.799000000000     0.683400000000     0.903900000000     0.0159887  
H        H      0.250000000000     0.858900000000     0.750000000000     0.0159887  
H        H      0.066600000000     0.049000000000     0.653900000000     0.0159887  
H        H      0.891100000000     0.500000000000     0.500000000000     0.0159887  
H        H      0.893000000000     0.250000000000     0.352500000000     0.0159887  
H        H      0.701000000000     0.316600000000     0.403900000000     0.0159887  
H        H      0.250000000000     0.141100000000     0.250000000000     0.0159887  
H        H      0.433400000000     0.951000000000     0.153900000000     0.0159887  
H        H      0.607000000000     0.250000000000     0.147500000000     0.0159887  
H        H      0.799000000000     0.316600000000     0.096100000000     0.0159887  
H        H      0.258900000000     0.056700000000     0.818700000000     0.0159887  
H        H      0.195600000000     0.058700000000     0.713100000000     0.0159887  
H        H      0.433400000000     0.049000000000     0.846100000000     0.0159887  
H        H      0.893000000000     0.750000000000     0.647500000000     0.0159887  
H        H      0.693300000000     0.508900000000     0.568700000000     0.0159887  
H        H      0.691300000000     0.445600000000     0.463100000000     0.0159887  
H        H      0.701000000000     0.683400000000     0.596100000000     0.0159887  
H        H      0.241100000000     0.943300000000     0.318700000000     0.0159887  
H        H      0.304400000000     0.941300000000     0.213100000000     0.0159887  
H        H      0.066600000000     0.951000000000     0.346100000000     0.0159887  
H        H      0.891100000000     0.000000000000     0.500000000000     0.0159887  
H        H      0.701000000000     0.816600000000     0.596100000000     0.0159887  
H        H      0.250000000000     0.641100000000     0.750000000000     0.0159887  
H        H      0.500000000000     0.643000000000     0.897500000000     0.0159887  
H        H      0.258900000000     0.443300000000     0.818700000000     0.0159887  
H        H      0.195600000000     0.441300000000     0.713100000000     0.0159887  
H        H      0.433400000000     0.451000000000     0.846100000000     0.0159887  
H        H      0.608900000000     0.000000000000     0.000000000000     0.0159887  
H        H      0.806700000000     0.008900000000     0.068700000000     0.0159887  
H        H      0.808700000000     0.945600000000     0.963100000000     0.0159887  
H        H      0.799000000000     0.183400000000     0.096100000000     0.0159887  
H        H      0.250000000000     0.358900000000     0.250000000000     0.0159887  
H        H      0.000000000000     0.357000000000     0.397500000000     0.0159887  
H        H      0.241100000000     0.556700000000     0.318700000000     0.0159887  
H        H      0.304400000000     0.558700000000     0.213100000000     0.0159887  
H        H      0.066600000000     0.549000000000     0.346100000000     0.0159887  
H        H      0.693300000000     0.008900000000     0.431300000000     0.0159887  
H        H      0.691300000000     0.945600000000     0.536900000000     0.0159887  
H        H      0.701000000000     0.183400000000     0.403900000000     0.0159887  
H        H      0.000000000000     0.643000000000     0.602500000000     0.0159887  
H        H      0.066600000000     0.451000000000     0.653900000000     0.0159887  
H        H      0.799000000000     0.816600000000     0.903900000000     0.0159887  
H        H      0.500000000000     0.357000000000     0.102500000000     0.0159887  
H        H      0.433400000000     0.549000000000     0.153900000000     0.0159887  
H        H      0.108900000000     0.000000000000     0.500000000000     0.0159887  
H        H      0.299000000000     0.183400000000     0.403900000000     0.0159887  
H        H      0.750000000000     0.358900000000     0.250000000000     0.0159887  
H        H      0.741100000000     0.556700000000     0.181300000000     0.0159887  
H        H      0.804400000000     0.558700000000     0.286900000000     0.0159887  
H        H      0.566600000000     0.549000000000     0.153900000000     0.0159887  
H        H      0.391100000000     0.000000000000     0.000000000000     0.0159887  
H        H      0.201000000000     0.816600000000     0.903900000000     0.0159887  
H        H      0.750000000000     0.641100000000     0.750000000000     0.0159887  
H        H      0.933400000000     0.451000000000     0.653900000000     0.0159887  
H        H      0.306700000000     0.991100000000     0.568700000000     0.0159887  
H        H      0.308700000000     0.054400000000     0.463100000000     0.0159887  
H        H      0.299000000000     0.816600000000     0.596100000000     0.0159887  
H        H      0.933400000000     0.549000000000     0.346100000000     0.0159887  
H        H      0.193300000000     0.008900000000     0.068700000000     0.0159887  
H        H      0.191300000000     0.945600000000     0.963100000000     0.0159887  
H        H      0.201000000000     0.183400000000     0.096100000000     0.0159887  
H        H      0.741100000000     0.443300000000     0.818700000000     0.0159887  
H        H      0.804400000000     0.441300000000     0.713100000000     0.0159887  
H        H      0.566600000000     0.451000000000     0.846100000000     0.0159887  
C        C      0.340900000000     0.500000000000     0.000000000000     0.0365574  
C        C      0.347700000000     0.250000000000     0.127600000000     0.0365574  
C        C      0.241000000000     0.286900000000     0.102000000000     0.0365574  
C        C      0.750000000000     0.090900000000     0.250000000000     0.0365574  
C        C      0.000000000000     0.097700000000     0.377600000000     0.0365574  
C        C      0.753700000000     0.981700000000     0.289600000000     0.0365574  
C        C      0.717700000000     0.981600000000     0.231700000000     0.0365574  
C        C      0.963100000000     0.991000000000     0.352000000000     0.0365574  
C        C      0.159100000000     0.500000000000     0.500000000000     0.0365574  
C        C      0.152300000000     0.750000000000     0.627600000000     0.0365574  
C        C      0.259000000000     0.713100000000     0.602000000000     0.0365574  
C        C      0.750000000000     0.909100000000     0.750000000000     0.0365574  
C        C      0.500000000000     0.902310000000     0.877600000000     0.0365574  
C        C      0.536900000000     0.009000000000     0.852000000000     0.0365574  
C        C      0.347700000000     0.750000000000     0.872400000000     0.0365574  
C        C      0.231700000000     0.503700000000     0.960400000000     0.0365574  
C        C      0.231600000000     0.467700000000     0.018300000000     0.0365574  
C        C      0.241000000000     0.713100000000     0.898000000000     0.0365574  
C        C      0.500000000000     0.097700000000     0.122400000000     0.0365574  
C        C      0.536900000000     0.991000000000     0.148000000000     0.0365574  
C        C      0.152300000000     0.250000000000     0.372400000000     0.0365574  
C        C      0.268300000000     0.496300000000     0.460400000000     0.0365574  
C        C      0.268400000000     0.532300000000     0.518300000000     0.0365574  
C        C      0.259000000000     0.286900000000     0.398000000000     0.0365574  
C        C      0.000000000000     0.902300000000     0.622400000000     0.0365574  
C        C      0.753700000000     0.018300000000     0.710400000000     0.0365574  
C        C      0.717700000000     0.018400000000     0.768300000000     0.0365574  
C        C      0.963100000000     0.009000000000     0.648000000000     0.0365574  
C        C      0.659100000000     0.500000000000     0.000000000000     0.0365574  
C        C      0.652300000000     0.750000000000     0.872400000000     0.0365574  
C        C      0.768300000000     0.503700000000     0.960400000000     0.0365574  
C        C      0.768400000000     0.467700000000     0.018300000000     0.0365574  
C        C      0.759000000000     0.713100000000     0.898000000000     0.0365574  
C        C      0.250000000000     0.909100000000     0.750000000000     0.0365574  
C        C      0.036900000000     0.009000000000     0.648000000000     0.0365574  
C        C      0.840900000000     0.500000000000     0.500000000000     0.0365574  
C        C      0.847700000000     0.250000000000     0.372400000000     0.0365574  
C        C      0.741000000000     0.286900000000     0.398000000000     0.0365574  
C        C      0.250000000000     0.090900000000     0.250000000000     0.0365574  
C        C      0.463100000000     0.991000000000     0.148000000000     0.0365574  
C        C      0.652300000000     0.250000000000     0.127600000000     0.0365574  
C        C      0.759000000000     0.286900000000     0.102000000000     0.0365574  
C        C      0.253700000000     0.018300000000     0.789600000000     0.0365574  
C        C      0.217700000000     0.018400000000     0.731700000000     0.0365574  
C        C      0.463100000000     0.009000000000     0.852000000000     0.0365574  
C        C      0.847700000000     0.750000000000     0.627600000000     0.0365574  
C        C      0.731700000000     0.503700000000     0.539600000000     0.0365574  
C        C      0.731600000000     0.467700000000     0.481700000000     0.0365574  
C        C      0.741000000000     0.713100000000     0.602000000000     0.0365574  
C        C      0.246300000000     0.981700000000     0.289600000000     0.0365574  
C        C      0.282300000000     0.981600000000     0.231700000000     0.0365574  
C        C      0.036900000000     0.991000000000     0.352000000000     0.0365574  
C        C      0.840900000000     0.000000000000     0.500000000000     0.0365574  
C        C      0.741000000000     0.786900000000     0.602000000000     0.0365574  
C        C      0.250000000000     0.590900000000     0.750000000000     0.0365574  
C        C      0.500000000000     0.597700000000     0.877600000000     0.0365574  
C        C      0.253700000000     0.481700000000     0.789600000000     0.0365574  
C        C      0.217700000000     0.481600000000     0.731700000000     0.0365574  
C        C      0.463100000000     0.491000000000     0.852000000000     0.0365574  
C        C      0.659100000000     0.000000000000     0.000000000000     0.0365574  
C        C      0.768300000000     0.003700000000     0.039600000000     0.0365574  
C        C      0.768400000000     0.967700000000     0.981700000000     0.0365574  
C        C      0.759000000000     0.213100000000     0.102000000000     0.0365574  
C        C      0.250000000000     0.409100000000     0.250000000000     0.0365574  
C        C      0.000000000000     0.402300000000     0.377600000000     0.0365574  
C        C      0.246300000000     0.518300000000     0.289600000000     0.0365574  
C        C      0.282300000000     0.518400000000     0.231700000000     0.0365574  
C        C      0.036900000000     0.509000000000     0.352000000000     0.0365574  
C        C      0.731700000000     0.003700000000     0.460400000000     0.0365574  
C        C      0.731600000000     0.967700000000     0.518300000000     0.0365574  
C        C      0.741000000000     0.213100000000     0.398000000000     0.0365574  
C        C      0.000000000000     0.597700000000     0.622400000000     0.0365574  
C        C      0.036900000000     0.491000000000     0.648000000000     0.0365574  
C        C      0.759000000000     0.786900000000     0.898000000000     0.0365574  
C        C      0.500000000000     0.402300000000     0.122400000000     0.0365574  
C        C      0.463100000000     0.509000000000     0.148000000000     0.0365574  
C        C      0.159100000000     0.000000000000     0.500000000000     0.0365574  
C        C      0.259000000000     0.213100000000     0.398000000000     0.0365574  
C        C      0.750000000000     0.409100000000     0.250000000000     0.0365574  
C        C      0.746300000000     0.518300000000     0.210400000000     0.0365574  
C        C      0.782300000000     0.518400000000     0.268300000000     0.0365574  
C        C      0.536900000000     0.509000000000     0.148000000000     0.0365574  
C        C      0.340900000000     0.000000000000     0.000000000000     0.0365574  
C        C      0.241000000000     0.786900000000     0.898000000000     0.0365574  
C        C      0.750000000000     0.590900000000     0.750000000000     0.0365574  
C        C      0.963100000000     0.491000000000     0.648000000000     0.0365574  
C        C      0.268300000000     0.996300000000     0.539600000000     0.0365574  
C        C      0.268400000000     0.032300000000     0.481700000000     0.0365574  
C        C      0.259000000000     0.786900000000     0.602000000000     0.0365574  
C        C      0.963100000000     0.509000000000     0.352000000000     0.0365574  
C        C      0.231700000000     0.003700000000     0.039600000000     0.0365574  
C        C      0.231600000000     0.967700000000     0.981700000000     0.0365574  
C        C      0.241000000000     0.213100000000     0.102000000000     0.0365574  
C        C      0.746300000000     0.481700000000     0.789600000000     0.0365574  
C        C      0.782300000000     0.481600000000     0.731700000000     0.0365574  
C        C      0.536900000000     0.491000000000     0.852000000000     0.0365574  
N        N      0.301900000000     0.468300000000     0.047000000000    -0.164281   
N        N      0.313800000000     0.310100000000     0.112700000000    -0.164281   
N        N      0.781700000000     0.051900000000     0.297000000000    -0.164281   
N        N      0.939900000000     0.063800000000     0.362700000000    -0.164281   
N        N      0.198100000000     0.531700000000     0.547000000000    -0.164281   
N        N      0.186200000000     0.689900000000     0.612700000000    -0.164281   
N        N      0.718300000000     0.948100000000     0.797000000000    -0.164281   
N        N      0.560100000000     0.936200000000     0.862700000000    -0.164281   
N        N      0.301900000000     0.531700000000     0.953000000000    -0.164281   
N        N      0.313800000000     0.689900000000     0.887300000000    -0.164281   
N        N      0.718300000000     0.051900000000     0.203000000000    -0.164281   
N        N      0.560100000000     0.063800000000     0.137300000000    -0.164281   
N        N      0.198100000000     0.468300000000     0.453000000000    -0.164281   
N        N      0.186200000000     0.310100000000     0.387300000000    -0.164281   
N        N      0.781700000000     0.948100000000     0.703000000000    -0.164281   
N        N      0.939900000000     0.936200000000     0.637300000000    -0.164281   
N        N      0.698100000000     0.531700000000     0.953000000000    -0.164281   
N        N      0.686200000000     0.689900000000     0.887300000000    -0.164281   
N        N      0.218300000000     0.948100000000     0.703000000000    -0.164281   
N        N      0.060100000000     0.936200000000     0.637300000000    -0.164281   
N        N      0.801900000000     0.468300000000     0.453000000000    -0.164281   
N        N      0.813800000000     0.310100000000     0.387300000000    -0.164281   
N        N      0.281700000000     0.051900000000     0.203000000000    -0.164281   
N        N      0.439900000000     0.063800000000     0.137300000000    -0.164281   
N        N      0.698100000000     0.468300000000     0.047000000000    -0.164281   
N        N      0.686200000000     0.310100000000     0.112700000000    -0.164281   
N        N      0.281700000000     0.948100000000     0.797000000000    -0.164281   
N        N      0.439900000000     0.936200000000     0.862700000000    -0.164281   
N        N      0.801900000000     0.531700000000     0.547000000000    -0.164281   
N        N      0.813800000000     0.689900000000     0.612700000000    -0.164281   
N        N      0.218300000000     0.051900000000     0.297000000000    -0.164281   
N        N      0.060100000000     0.063800000000     0.362700000000    -0.164281   
N        N      0.801900000000     0.968300000000     0.547000000000    -0.164281   
N        N      0.813800000000     0.810100000000     0.612700000000    -0.164281   
N        N      0.281700000000     0.551900000000     0.797000000000    -0.164281   
N        N      0.439900000000     0.563800000000     0.862700000000    -0.164281   
N        N      0.698100000000     0.031700000000     0.047000000000    -0.164281   
N        N      0.686200000000     0.189900000000     0.112700000000    -0.164281   
N        N      0.218300000000     0.448100000000     0.297000000000    -0.164281   
N        N      0.060100000000     0.436200000000     0.362700000000    -0.164281   
N        N      0.801900000000     0.031700000000     0.453000000000    -0.164281   
N        N      0.813800000000     0.189900000000     0.387300000000    -0.164281   
N        N      0.218300000000     0.551900000000     0.703000000000    -0.164281   
N        N      0.060100000000     0.563800000000     0.637300000000    -0.164281   
N        N      0.698100000000     0.968300000000     0.953000000000    -0.164281   
N        N      0.686200000000     0.810100000000     0.887300000000    -0.164281   
N        N      0.281700000000     0.448100000000     0.203000000000    -0.164281   
N        N      0.439900000000     0.436200000000     0.137300000000    -0.164281   
N        N      0.198100000000     0.031700000000     0.453000000000    -0.164281   
N        N      0.186200000000     0.189900000000     0.387300000000    -0.164281   
N        N      0.718300000000     0.448100000000     0.203000000000    -0.164281   
N        N      0.560100000000     0.436200000000     0.137300000000    -0.164281   
N        N      0.301900000000     0.968300000000     0.953000000000    -0.164281   
N        N      0.313800000000     0.810100000000     0.887300000000    -0.164281   
N        N      0.781700000000     0.551900000000     0.703000000000    -0.164281   
N        N      0.939900000000     0.563800000000     0.637300000000    -0.164281   
N        N      0.198100000000     0.968300000000     0.547000000000    -0.164281   
N        N      0.186200000000     0.810100000000     0.612700000000    -0.164281   
N        N      0.781700000000     0.448100000000     0.297000000000    -0.164281   
N        N      0.939900000000     0.436200000000     0.362700000000    -0.164281   
N        N      0.301900000000     0.031700000000     0.047000000000    -0.164281   
N        N      0.313800000000     0.189900000000     0.112700000000    -0.164281   
N        N      0.718300000000     0.551900000000     0.797000000000    -0.164281   
N        N      0.560100000000     0.563800000000     0.862700000000    -0.164281   


