data_ZIF-8_original

_audit_creation_method RASPA-1.0
_audit_creation_date 2022-1-31
_audit_author_name 'Felipe Lopes de Oliveira <felipe.lopes.oliveira@ibm.com>'

_cell_length_a    16.991
_cell_length_b    16.991
_cell_length_c    16.991
_cell_angle_alpha 90
_cell_angle_beta  90
_cell_angle_gamma 90
_cell_volume      4905.2

_symmetry_cell_setting          triclinic
_symmetry_space_group_name_Hall 'P 1'
_symmetry_space_group_name_H-M  'P 1'
_symmetry_Int_Tables_number     1

_symmetry_equiv_pos_as_xyz 'x,y,z'

loop_
_atom_site_label
_atom_site_type_symbol
_atom_site_fract_x
_atom_site_fract_y
_atom_site_fract_z
_atom_site_charge
Zn       Zn     0.500000000000     0.000000000000     0.750000000000     0.3196     
Zn       Zn     0.000000000000     0.500000000000     0.250000000000     0.3196     
Zn       Zn     0.500000000000     0.000000000000     0.250000000000     0.3196     
Zn       Zn     0.000000000000     0.500000000000     0.750000000000     0.3196     
Zn       Zn     0.750000000000     0.500000000000     0.000000000000     0.3196     
Zn       Zn     0.500000000000     0.250000000000     0.000000000000     0.3196     
Zn       Zn     0.250000000000     0.500000000000     0.000000000000     0.3196     
Zn       Zn     0.500000000000     0.750000000000     0.000000000000     0.3196     
Zn       Zn     0.000000000000     0.750000000000     0.500000000000     0.3196     
Zn       Zn     0.000000000000     0.250000000000     0.500000000000     0.3196     
Zn       Zn     0.250000000000     0.000000000000     0.500000000000     0.3196     
Zn       Zn     0.750000000000     0.000000000000     0.500000000000     0.3196     
H        H      0.377700000000     0.858900000000     0.723400000000     0.157007   
H        H      0.858900000000     0.622300000000     0.276600000000     0.157007   
H        H      0.622300000000     0.141100000000     0.723400000000     0.157007   
H        H      0.541300000000     0.920200000000     0.574300000000     0.157007   
H        H      0.594200000000     0.877200000000     0.636400000000     0.157007   
H        H      0.627600000000     0.896100000000     0.552500000000     0.157007   
H        H      0.141100000000     0.377700000000     0.276600000000     0.157007   
H        H      0.920200000000     0.458700000000     0.425700000000     0.157007   
H        H      0.877200000000     0.405800000000     0.363600000000     0.157007   
H        H      0.896100000000     0.372400000000     0.447500000000     0.157007   
H        H      0.377700000000     0.141100000000     0.276600000000     0.157007   
H        H      0.141100000000     0.622300000000     0.723400000000     0.157007   
H        H      0.622300000000     0.858900000000     0.276600000000     0.157007   
H        H      0.541300000000     0.079800000000     0.425700000000     0.157007   
H        H      0.594200000000     0.122800000000     0.363600000000     0.157007   
H        H      0.627600000000     0.103900000000     0.447500000000     0.157007   
H        H      0.858900000000     0.377700000000     0.723400000000     0.157007   
H        H      0.079800000000     0.458700000000     0.574300000000     0.157007   
H        H      0.122800000000     0.405800000000     0.636400000000     0.157007   
H        H      0.103900000000     0.372400000000     0.552500000000     0.157007   
H        H      0.723400000000     0.377700000000     0.858900000000     0.157007   
H        H      0.377700000000     0.276600000000     0.141100000000     0.157007   
H        H      0.458700000000     0.425700000000     0.920200000000     0.157007   
H        H      0.405800000000     0.363600000000     0.877200000000     0.157007   
H        H      0.372400000000     0.447500000000     0.896100000000     0.157007   
H        H      0.276600000000     0.622300000000     0.858900000000     0.157007   
H        H      0.622300000000     0.723400000000     0.141100000000     0.157007   
H        H      0.541300000000     0.574300000000     0.920200000000     0.157007   
H        H      0.594200000000     0.636400000000     0.877200000000     0.157007   
H        H      0.627600000000     0.552500000000     0.896100000000     0.157007   
H        H      0.723400000000     0.622300000000     0.141100000000     0.157007   
H        H      0.622300000000     0.276600000000     0.858900000000     0.157007   
H        H      0.541300000000     0.425700000000     0.079800000000     0.157007   
H        H      0.594200000000     0.363600000000     0.122800000000     0.157007   
H        H      0.627600000000     0.447500000000     0.103900000000     0.157007   
H        H      0.276600000000     0.377700000000     0.141100000000     0.157007   
H        H      0.377700000000     0.723400000000     0.858900000000     0.157007   
H        H      0.458700000000     0.574300000000     0.079800000000     0.157007   
H        H      0.405800000000     0.636400000000     0.122800000000     0.157007   
H        H      0.372400000000     0.552500000000     0.103900000000     0.157007   
H        H      0.858900000000     0.723400000000     0.377700000000     0.157007   
H        H      0.079800000000     0.574300000000     0.458700000000     0.157007   
H        H      0.122800000000     0.636400000000     0.405800000000     0.157007   
H        H      0.103900000000     0.552500000000     0.372400000000     0.157007   
H        H      0.858900000000     0.276600000000     0.622300000000     0.157007   
H        H      0.276600000000     0.141100000000     0.377700000000     0.157007   
H        H      0.425700000000     0.920200000000     0.458700000000     0.157007   
H        H      0.363600000000     0.877200000000     0.405800000000     0.157007   
H        H      0.447500000000     0.896100000000     0.372400000000     0.157007   
H        H      0.141100000000     0.723400000000     0.622300000000     0.157007   
H        H      0.920200000000     0.574300000000     0.541300000000     0.157007   
H        H      0.877200000000     0.636400000000     0.594200000000     0.157007   
H        H      0.896100000000     0.552500000000     0.627600000000     0.157007   
H        H      0.723400000000     0.858900000000     0.377700000000     0.157007   
H        H      0.141100000000     0.276600000000     0.377700000000     0.157007   
H        H      0.276600000000     0.858900000000     0.622300000000     0.157007   
H        H      0.425700000000     0.079800000000     0.541300000000     0.157007   
H        H      0.363600000000     0.122800000000     0.594200000000     0.157007   
H        H      0.447500000000     0.103900000000     0.627600000000     0.157007   
H        H      0.723400000000     0.141100000000     0.622300000000     0.157007   
H        H      0.877700000000     0.358900000000     0.223400000000     0.157007   
H        H      0.958700000000     0.579800000000     0.074300000000     0.157007   
H        H      0.905800000000     0.622800000000     0.136400000000     0.157007   
H        H      0.872400000000     0.603900000000     0.052500000000     0.157007   
H        H      0.358900000000     0.122300000000     0.776600000000     0.157007   
H        H      0.122300000000     0.641100000000     0.223400000000     0.157007   
H        H      0.041300000000     0.420200000000     0.074300000000     0.157007   
H        H      0.094200000000     0.377200000000     0.136400000000     0.157007   
H        H      0.127600000000     0.396100000000     0.052500000000     0.157007   
H        H      0.641100000000     0.877700000000     0.776600000000     0.157007   
H        H      0.420200000000     0.958700000000     0.925700000000     0.157007   
H        H      0.377200000000     0.905800000000     0.863600000000     0.157007   
H        H      0.396100000000     0.872400000000     0.947500000000     0.157007   
H        H      0.877700000000     0.641100000000     0.776600000000     0.157007   
H        H      0.958700000000     0.420200000000     0.925700000000     0.157007   
H        H      0.905800000000     0.377200000000     0.863600000000     0.157007   
H        H      0.872400000000     0.396100000000     0.947500000000     0.157007   
H        H      0.641100000000     0.122300000000     0.223400000000     0.157007   
H        H      0.122300000000     0.358900000000     0.776600000000     0.157007   
H        H      0.358900000000     0.877700000000     0.223400000000     0.157007   
H        H      0.223400000000     0.877700000000     0.358900000000     0.157007   
H        H      0.877700000000     0.776600000000     0.641100000000     0.157007   
H        H      0.958700000000     0.925700000000     0.420200000000     0.157007   
H        H      0.905800000000     0.863600000000     0.377200000000     0.157007   
H        H      0.872400000000     0.947500000000     0.396100000000     0.157007   
H        H      0.776600000000     0.122300000000     0.358900000000     0.157007   
H        H      0.122300000000     0.223400000000     0.641100000000     0.157007   
H        H      0.041300000000     0.074300000000     0.420200000000     0.157007   
H        H      0.094200000000     0.136400000000     0.377200000000     0.157007   
H        H      0.127600000000     0.052500000000     0.396100000000     0.157007   
H        H      0.223400000000     0.122300000000     0.641100000000     0.157007   
H        H      0.122300000000     0.776600000000     0.358900000000     0.157007   
H        H      0.041300000000     0.925700000000     0.579800000000     0.157007   
H        H      0.094200000000     0.863600000000     0.622800000000     0.157007   
H        H      0.127600000000     0.947500000000     0.603900000000     0.157007   
H        H      0.776600000000     0.877700000000     0.641100000000     0.157007   
H        H      0.877700000000     0.223400000000     0.358900000000     0.157007   
H        H      0.958700000000     0.074300000000     0.579800000000     0.157007   
H        H      0.905800000000     0.136400000000     0.622800000000     0.157007   
H        H      0.872400000000     0.052500000000     0.603900000000     0.157007   
H        H      0.358900000000     0.223400000000     0.877700000000     0.157007   
H        H      0.579800000000     0.074300000000     0.958700000000     0.157007   
H        H      0.622800000000     0.136400000000     0.905800000000     0.157007   
H        H      0.603900000000     0.052500000000     0.872400000000     0.157007   
H        H      0.358900000000     0.776600000000     0.122300000000     0.157007   
H        H      0.579800000000     0.925700000000     0.041300000000     0.157007   
H        H      0.622800000000     0.863600000000     0.094200000000     0.157007   
H        H      0.603900000000     0.947500000000     0.127600000000     0.157007   
H        H      0.776600000000     0.641100000000     0.877700000000     0.157007   
H        H      0.641100000000     0.223400000000     0.122300000000     0.157007   
H        H      0.420200000000     0.074300000000     0.041300000000     0.157007   
H        H      0.377200000000     0.136400000000     0.094200000000     0.157007   
H        H      0.396100000000     0.052500000000     0.127600000000     0.157007   
H        H      0.223400000000     0.358900000000     0.877700000000     0.157007   
H        H      0.074300000000     0.579800000000     0.958700000000     0.157007   
H        H      0.136400000000     0.622800000000     0.905800000000     0.157007   
H        H      0.052500000000     0.603900000000     0.872400000000     0.157007   
H        H      0.641100000000     0.776600000000     0.877700000000     0.157007   
H        H      0.776600000000     0.358900000000     0.122300000000     0.157007   
H        H      0.223400000000     0.641100000000     0.122300000000     0.157007   
C        C      0.377050000000     0.007900000000     0.622950000000    -0.132014   
C        C      0.368510000000     0.899140000000     0.687500000000    -0.132014   
C        C      0.406100000000     0.085500000000     0.593900000000    -0.132014   
C        C      0.007900000000     0.622950000000     0.377050000000    -0.132014   
C        C      0.899140000000     0.631490000000     0.312500000000    -0.132014   
C        C      0.085500000000     0.593900000000     0.406100000000    -0.132014   
C        C      0.622950000000     0.992100000000     0.622950000000    -0.132014   
C        C      0.631490000000     0.100860000000     0.687500000000    -0.132014   
C        C      0.593900000000     0.914500000000     0.593900000000    -0.132014   
C        C      0.992100000000     0.377050000000     0.377050000000    -0.132014   
C        C      0.100860000000     0.368510000000     0.312500000000    -0.132014   
C        C      0.914500000000     0.406100000000     0.406100000000    -0.132014   
C        C      0.377050000000     0.992100000000     0.377050000000    -0.132014   
C        C      0.368510000000     0.100860000000     0.312500000000    -0.132014   
C        C      0.406100000000     0.914500000000     0.406100000000    -0.132014   
C        C      0.992100000000     0.622950000000     0.622950000000    -0.132014   
C        C      0.100860000000     0.631490000000     0.687500000000    -0.132014   
C        C      0.914500000000     0.593900000000     0.593900000000    -0.132014   
C        C      0.622950000000     0.007900000000     0.377050000000    -0.132014   
C        C      0.631490000000     0.899140000000     0.312500000000    -0.132014   
C        C      0.593900000000     0.085500000000     0.406100000000    -0.132014   
C        C      0.007900000000     0.377050000000     0.622950000000    -0.132014   
C        C      0.899140000000     0.368510000000     0.687500000000    -0.132014   
C        C      0.085500000000     0.406100000000     0.593900000000    -0.132014   
C        C      0.622950000000     0.377050000000     0.007900000000    -0.132014   
C        C      0.687500000000     0.368510000000     0.899140000000    -0.132014   
C        C      0.593900000000     0.406100000000     0.085500000000    -0.132014   
C        C      0.377050000000     0.377050000000     0.992100000000    -0.132014   
C        C      0.368510000000     0.312500000000     0.100860000000    -0.132014   
C        C      0.406100000000     0.406100000000     0.914500000000    -0.132014   
C        C      0.377050000000     0.622950000000     0.007900000000    -0.132014   
C        C      0.312500000000     0.631490000000     0.899140000000    -0.132014   
C        C      0.406100000000     0.593900000000     0.085500000000    -0.132014   
C        C      0.622950000000     0.622950000000     0.992100000000    -0.132014   
C        C      0.631490000000     0.687500000000     0.100860000000    -0.132014   
C        C      0.593900000000     0.593900000000     0.914500000000    -0.132014   
C        C      0.687500000000     0.631490000000     0.100860000000    -0.132014   
C        C      0.631490000000     0.312500000000     0.899140000000    -0.132014   
C        C      0.312500000000     0.368510000000     0.100860000000    -0.132014   
C        C      0.368510000000     0.687500000000     0.899140000000    -0.132014   
C        C      0.899140000000     0.687500000000     0.368510000000    -0.132014   
C        C      0.899140000000     0.312500000000     0.631490000000    -0.132014   
C        C      0.312500000000     0.100860000000     0.368510000000    -0.132014   
C        C      0.100860000000     0.687500000000     0.631490000000    -0.132014   
C        C      0.687500000000     0.899140000000     0.368510000000    -0.132014   
C        C      0.100860000000     0.312500000000     0.368510000000    -0.132014   
C        C      0.312500000000     0.899140000000     0.631490000000    -0.132014   
C        C      0.687500000000     0.100860000000     0.631490000000    -0.132014   
C        C      0.877050000000     0.507900000000     0.122950000000    -0.132014   
C        C      0.868510000000     0.399140000000     0.187500000000    -0.132014   
C        C      0.906100000000     0.585500000000     0.093900000000    -0.132014   
C        C      0.507900000000     0.122950000000     0.877050000000    -0.132014   
C        C      0.399140000000     0.131490000000     0.812500000000    -0.132014   
C        C      0.585500000000     0.093900000000     0.906100000000    -0.132014   
C        C      0.122950000000     0.492100000000     0.122950000000    -0.132014   
C        C      0.131490000000     0.600860000000     0.187500000000    -0.132014   
C        C      0.093900000000     0.414500000000     0.093900000000    -0.132014   
C        C      0.492100000000     0.877050000000     0.877050000000    -0.132014   
C        C      0.600860000000     0.868510000000     0.812500000000    -0.132014   
C        C      0.414500000000     0.906100000000     0.906100000000    -0.132014   
C        C      0.877050000000     0.492100000000     0.877050000000    -0.132014   
C        C      0.868510000000     0.600860000000     0.812500000000    -0.132014   
C        C      0.906100000000     0.414500000000     0.906100000000    -0.132014   
C        C      0.492100000000     0.122950000000     0.122950000000    -0.132014   
C        C      0.600860000000     0.131490000000     0.187500000000    -0.132014   
C        C      0.414500000000     0.093900000000     0.093900000000    -0.132014   
C        C      0.122950000000     0.507900000000     0.877050000000    -0.132014   
C        C      0.131490000000     0.399140000000     0.812500000000    -0.132014   
C        C      0.093900000000     0.585500000000     0.906100000000    -0.132014   
C        C      0.507900000000     0.877050000000     0.122950000000    -0.132014   
C        C      0.399140000000     0.868510000000     0.187500000000    -0.132014   
C        C      0.585500000000     0.906100000000     0.093900000000    -0.132014   
C        C      0.122950000000     0.877050000000     0.507900000000    -0.132014   
C        C      0.187500000000     0.868510000000     0.399140000000    -0.132014   
C        C      0.093900000000     0.906100000000     0.585500000000    -0.132014   
C        C      0.877050000000     0.877050000000     0.492100000000    -0.132014   
C        C      0.868510000000     0.812500000000     0.600860000000    -0.132014   
C        C      0.906100000000     0.906100000000     0.414500000000    -0.132014   
C        C      0.877050000000     0.122950000000     0.507900000000    -0.132014   
C        C      0.812500000000     0.131490000000     0.399140000000    -0.132014   
C        C      0.906100000000     0.093900000000     0.585500000000    -0.132014   
C        C      0.122950000000     0.122950000000     0.492100000000    -0.132014   
C        C      0.131490000000     0.187500000000     0.600860000000    -0.132014   
C        C      0.093900000000     0.093900000000     0.414500000000    -0.132014   
C        C      0.187500000000     0.131490000000     0.600860000000    -0.132014   
C        C      0.131490000000     0.812500000000     0.399140000000    -0.132014   
C        C      0.812500000000     0.868510000000     0.600860000000    -0.132014   
C        C      0.868510000000     0.187500000000     0.399140000000    -0.132014   
C        C      0.399140000000     0.187500000000     0.868510000000    -0.132014   
C        C      0.399140000000     0.812500000000     0.131490000000    -0.132014   
C        C      0.812500000000     0.600860000000     0.868510000000    -0.132014   
C        C      0.600860000000     0.187500000000     0.131490000000    -0.132014   
C        C      0.187500000000     0.399140000000     0.868510000000    -0.132014   
C        C      0.600860000000     0.812500000000     0.868510000000    -0.132014   
C        C      0.812500000000     0.399140000000     0.131490000000    -0.132014   
C        C      0.187500000000     0.600860000000     0.131490000000    -0.132014   
N        N      0.409730000000     0.968320000000     0.682780000000    -0.208391   
N        N      0.968320000000     0.590270000000     0.317220000000    -0.208391   
N        N      0.590270000000     0.031680000000     0.682780000000    -0.208391   
N        N      0.031680000000     0.409730000000     0.317220000000    -0.208391   
N        N      0.409730000000     0.031680000000     0.317220000000    -0.208391   
N        N      0.031680000000     0.590270000000     0.682780000000    -0.208391   
N        N      0.590270000000     0.968320000000     0.317220000000    -0.208391   
N        N      0.968320000000     0.409730000000     0.682780000000    -0.208391   
N        N      0.682780000000     0.409730000000     0.968320000000    -0.208391   
N        N      0.409730000000     0.317220000000     0.031680000000    -0.208391   
N        N      0.317220000000     0.590270000000     0.968320000000    -0.208391   
N        N      0.590270000000     0.682780000000     0.031680000000    -0.208391   
N        N      0.682780000000     0.590270000000     0.031680000000    -0.208391   
N        N      0.590270000000     0.317220000000     0.968320000000    -0.208391   
N        N      0.317220000000     0.409730000000     0.031680000000    -0.208391   
N        N      0.409730000000     0.682780000000     0.968320000000    -0.208391   
N        N      0.968320000000     0.682780000000     0.409730000000    -0.208391   
N        N      0.968320000000     0.317220000000     0.590270000000    -0.208391   
N        N      0.317220000000     0.031680000000     0.409730000000    -0.208391   
N        N      0.031680000000     0.682780000000     0.590270000000    -0.208391   
N        N      0.682780000000     0.968320000000     0.409730000000    -0.208391   
N        N      0.031680000000     0.317220000000     0.409730000000    -0.208391   
N        N      0.317220000000     0.968320000000     0.590270000000    -0.208391   
N        N      0.682780000000     0.031680000000     0.590270000000    -0.208391   
N        N      0.909730000000     0.468320000000     0.182780000000    -0.208391   
N        N      0.468320000000     0.090270000000     0.817220000000    -0.208391   
N        N      0.090270000000     0.531680000000     0.182780000000    -0.208391   
N        N      0.531680000000     0.909730000000     0.817220000000    -0.208391   
N        N      0.909730000000     0.531680000000     0.817220000000    -0.208391   
N        N      0.531680000000     0.090270000000     0.182780000000    -0.208391   
N        N      0.090270000000     0.468320000000     0.817220000000    -0.208391   
N        N      0.468320000000     0.909730000000     0.182780000000    -0.208391   
N        N      0.182780000000     0.909730000000     0.468320000000    -0.208391   
N        N      0.909730000000     0.817220000000     0.531680000000    -0.208391   
N        N      0.817220000000     0.090270000000     0.468320000000    -0.208391   
N        N      0.090270000000     0.182780000000     0.531680000000    -0.208391   
N        N      0.182780000000     0.090270000000     0.531680000000    -0.208391   
N        N      0.090270000000     0.817220000000     0.468320000000    -0.208391   
N        N      0.817220000000     0.909730000000     0.531680000000    -0.208391   
N        N      0.909730000000     0.182780000000     0.468320000000    -0.208391   
N        N      0.468320000000     0.182780000000     0.909730000000    -0.208391   
N        N      0.468320000000     0.817220000000     0.090270000000    -0.208391   
N        N      0.817220000000     0.531680000000     0.909730000000    -0.208391   
N        N      0.531680000000     0.182780000000     0.090270000000    -0.208391   
N        N      0.182780000000     0.468320000000     0.909730000000    -0.208391   
N        N      0.531680000000     0.817220000000     0.909730000000    -0.208391   
N        N      0.817220000000     0.468320000000     0.090270000000    -0.208391   
N        N      0.182780000000     0.531680000000     0.090270000000    -0.208391   


