data_ZIF-90_original

_audit_creation_method RASPA-1.0
_audit_creation_date 2022-1-29
_audit_author_name 'Felipe Lopes de Oliveira <felipe.lopes.oliveira@ibm.com>'

_cell_length_a    17.2715
_cell_length_b    17.2715
_cell_length_c    17.2715
_cell_angle_alpha 90
_cell_angle_beta  90
_cell_angle_gamma 90
_cell_volume      5152.17

_symmetry_cell_setting          triclinic
_symmetry_space_group_name_Hall 'P 1'
_symmetry_space_group_name_H-M  'P 1'
_symmetry_Int_Tables_number     1

_symmetry_equiv_pos_as_xyz 'x,y,z'

loop_
_atom_site_label
_atom_site_type_symbol
_atom_site_fract_x
_atom_site_fract_y
_atom_site_fract_z
_atom_site_charge
Zn       Zn     0.000000000000     0.500000000000     0.250000000000     0.394577   
Zn       Zn     0.000000000000     0.500000000000     0.750000000000     0.394577   
Zn       Zn     0.250000000000     0.000000000000     0.500000000000     0.394577   
Zn       Zn     0.750000000000     0.000000000000     0.500000000000     0.394577   
Zn       Zn     0.500000000000     0.250000000000     0.000000000000     0.394577   
Zn       Zn     0.500000000000     0.750000000000     0.000000000000     0.394577   
Zn       Zn     0.500000000000     0.000000000000     0.250000000000     0.394577   
Zn       Zn     0.500000000000     0.000000000000     0.750000000000     0.394577   
Zn       Zn     0.000000000000     0.250000000000     0.500000000000     0.394577   
Zn       Zn     0.000000000000     0.750000000000     0.500000000000     0.394577   
Zn       Zn     0.250000000000     0.500000000000     0.000000000000     0.394577   
Zn       Zn     0.750000000000     0.500000000000     0.000000000000     0.394577   
H        H      0.930000000000     0.590000000000     0.105000000000     0.101344   
H        H      0.862700000000     0.368000000000     0.229200000000     0.101344   
H        H      0.362700000000     0.868000000000     0.729200000000     0.101344   
H        H      0.070000000000     0.410000000000     0.105000000000     0.101344   
H        H      0.137300000000     0.632000000000     0.229200000000     0.101344   
H        H      0.637300000000     0.132000000000     0.729200000000     0.101344   
H        H      0.137300000000     0.368000000000     0.770800000000     0.101344   
H        H      0.637300000000     0.868000000000     0.270800000000     0.101344   
H        H      0.862700000000     0.632000000000     0.770800000000     0.101344   
H        H      0.430000000000     0.910000000000     0.395000000000     0.101344   
H        H      0.362700000000     0.132000000000     0.270800000000     0.101344   
H        H      0.105000000000     0.930000000000     0.590000000000     0.101344   
H        H      0.229200000000     0.862700000000     0.368000000000     0.101344   
H        H      0.729200000000     0.362700000000     0.868000000000     0.101344   
H        H      0.105000000000     0.070000000000     0.410000000000     0.101344   
H        H      0.229200000000     0.137300000000     0.632000000000     0.101344   
H        H      0.605000000000     0.570000000000     0.910000000000     0.101344   
H        H      0.729200000000     0.637300000000     0.132000000000     0.101344   
H        H      0.770800000000     0.137300000000     0.368000000000     0.101344   
H        H      0.270800000000     0.637300000000     0.868000000000     0.101344   
H        H      0.895000000000     0.930000000000     0.410000000000     0.101344   
H        H      0.770800000000     0.862700000000     0.632000000000     0.101344   
H        H      0.395000000000     0.430000000000     0.910000000000     0.101344   
H        H      0.270800000000     0.362700000000     0.132000000000     0.101344   
H        H      0.593620000000     0.073480000000     0.890990000000     0.101344   
H        H      0.368000000000     0.229200000000     0.862700000000     0.101344   
H        H      0.090000000000     0.605000000000     0.430000000000     0.101344   
H        H      0.868000000000     0.729200000000     0.362700000000     0.101344   
H        H      0.632000000000     0.229200000000     0.137300000000     0.101344   
H        H      0.910000000000     0.605000000000     0.570000000000     0.101344   
H        H      0.132000000000     0.729200000000     0.637300000000     0.101344   
H        H      0.368000000000     0.770800000000     0.137300000000     0.101344   
H        H      0.090000000000     0.395000000000     0.570000000000     0.101344   
H        H      0.868000000000     0.270800000000     0.637300000000     0.101344   
H        H      0.410000000000     0.895000000000     0.930000000000     0.101344   
H        H      0.632000000000     0.770800000000     0.862700000000     0.101344   
H        H      0.132000000000     0.270800000000     0.362700000000     0.101344   
H        H      0.590000000000     0.930000000000     0.105000000000     0.101344   
H        H      0.368000000000     0.862700000000     0.229200000000     0.101344   
H        H      0.868000000000     0.362700000000     0.729200000000     0.101344   
H        H      0.410000000000     0.070000000000     0.105000000000     0.101344   
H        H      0.632000000000     0.137300000000     0.229200000000     0.101344   
H        H      0.132000000000     0.637300000000     0.729200000000     0.101344   
H        H      0.368000000000     0.137300000000     0.770800000000     0.101344   
H        H      0.868000000000     0.637300000000     0.270800000000     0.101344   
H        H      0.632000000000     0.862700000000     0.770800000000     0.101344   
H        H      0.910000000000     0.430000000000     0.395000000000     0.101344   
H        H      0.132000000000     0.362700000000     0.270800000000     0.101344   
H        H      0.930000000000     0.105000000000     0.590000000000     0.101344   
H        H      0.862700000000     0.229200000000     0.368000000000     0.101344   
H        H      0.430000000000     0.605000000000     0.090000000000     0.101344   
H        H      0.362700000000     0.729200000000     0.868000000000     0.101344   
H        H      0.137300000000     0.229200000000     0.632000000000     0.101344   
H        H      0.637300000000     0.729200000000     0.132000000000     0.101344   
H        H      0.137300000000     0.770800000000     0.368000000000     0.101344   
H        H      0.570000000000     0.395000000000     0.090000000000     0.101344   
H        H      0.637300000000     0.270800000000     0.868000000000     0.101344   
H        H      0.862700000000     0.770800000000     0.632000000000     0.101344   
H        H      0.362700000000     0.270800000000     0.132000000000     0.101344   
H        H      0.105000000000     0.590000000000     0.930000000000     0.101344   
H        H      0.229200000000     0.368000000000     0.862700000000     0.101344   
H        H      0.605000000000     0.090000000000     0.430000000000     0.101344   
H        H      0.729200000000     0.868000000000     0.362700000000     0.101344   
H        H      0.229200000000     0.632000000000     0.137300000000     0.101344   
H        H      0.605000000000     0.910000000000     0.570000000000     0.101344   
H        H      0.729200000000     0.132000000000     0.637300000000     0.101344   
H        H      0.770800000000     0.368000000000     0.137300000000     0.101344   
H        H      0.395000000000     0.090000000000     0.570000000000     0.101344   
H        H      0.270800000000     0.868000000000     0.637300000000     0.101344   
H        H      0.895000000000     0.410000000000     0.930000000000     0.101344   
H        H      0.770800000000     0.632000000000     0.862700000000     0.101344   
H        H      0.270800000000     0.132000000000     0.362700000000     0.101344   
C        C      0.860300000000     0.406300000000     0.189800000000    -0.00173371 
C        C      0.360300000000     0.906300000000     0.689800000000    -0.00173371 
C        C      0.139700000000     0.593700000000     0.189800000000    -0.00173371 
C        C      0.639700000000     0.093700000000     0.689800000000    -0.00173371 
C        C      0.139700000000     0.406300000000     0.810200000000    -0.00173371 
C        C      0.639700000000     0.906300000000     0.310200000000    -0.00173371 
C        C      0.860300000000     0.593700000000     0.810200000000    -0.00173371 
C        C      0.360300000000     0.093700000000     0.310200000000    -0.00173371 
C        C      0.189800000000     0.860300000000     0.406300000000    -0.00173371 
C        C      0.689800000000     0.360300000000     0.906300000000    -0.00173371 
C        C      0.189800000000     0.139700000000     0.593700000000    -0.00173371 
C        C      0.689800000000     0.639700000000     0.093700000000    -0.00173371 
C        C      0.810200000000     0.139700000000     0.406300000000    -0.00173371 
C        C      0.310200000000     0.639700000000     0.906300000000    -0.00173371 
C        C      0.810200000000     0.860300000000     0.593700000000    -0.00173371 
C        C      0.310200000000     0.360300000000     0.093700000000    -0.00173371 
C        C      0.406300000000     0.189800000000     0.860300000000    -0.00173371 
C        C      0.906300000000     0.689800000000     0.360300000000    -0.00173371 
C        C      0.593700000000     0.189800000000     0.139700000000    -0.00173371 
C        C      0.093700000000     0.689800000000     0.639700000000    -0.00173371 
C        C      0.406300000000     0.810200000000     0.139700000000    -0.00173371 
C        C      0.906300000000     0.310200000000     0.639700000000    -0.00173371 
C        C      0.593700000000     0.810200000000     0.860300000000    -0.00173371 
C        C      0.093700000000     0.310200000000     0.360300000000    -0.00173371 
C        C      0.406300000000     0.860300000000     0.189800000000    -0.00173371 
C        C      0.906300000000     0.360300000000     0.689800000000    -0.00173371 
C        C      0.593700000000     0.139700000000     0.189800000000    -0.00173371 
C        C      0.093700000000     0.639700000000     0.689800000000    -0.00173371 
C        C      0.406300000000     0.139700000000     0.810200000000    -0.00173371 
C        C      0.906300000000     0.639700000000     0.310200000000    -0.00173371 
C        C      0.593700000000     0.860300000000     0.810200000000    -0.00173371 
C        C      0.093700000000     0.360300000000     0.310200000000    -0.00173371 
C        C      0.860300000000     0.189800000000     0.406300000000    -0.00173371 
C        C      0.360300000000     0.689800000000     0.906300000000    -0.00173371 
C        C      0.139700000000     0.189800000000     0.593700000000    -0.00173371 
C        C      0.639700000000     0.689800000000     0.093700000000    -0.00173371 
C        C      0.139700000000     0.810200000000     0.406300000000    -0.00173371 
C        C      0.639700000000     0.310200000000     0.906300000000    -0.00173371 
C        C      0.860300000000     0.810200000000     0.593700000000    -0.00173371 
C        C      0.360300000000     0.310200000000     0.093700000000    -0.00173371 
C        C      0.189800000000     0.406300000000     0.860300000000    -0.00173371 
C        C      0.689800000000     0.906300000000     0.360300000000    -0.00173371 
C        C      0.189800000000     0.593700000000     0.139700000000    -0.00173371 
C        C      0.689800000000     0.093700000000     0.639700000000    -0.00173371 
C        C      0.810200000000     0.406300000000     0.139700000000    -0.00173371 
C        C      0.310200000000     0.906300000000     0.639700000000    -0.00173371 
C        C      0.810200000000     0.593700000000     0.860300000000    -0.00173371 
C        C      0.310200000000     0.093700000000     0.360300000000    -0.00173371 
C        C      0.874700000000     0.486700000000     0.125300000000    -0.00173371 
C        C      0.897400000000     0.567400000000     0.102600000000    -0.00173371 
C        C      0.374700000000     0.986700000000     0.625300000000    -0.00173371 
C        C      0.397400000000     0.067400000000     0.602600000000    -0.00173371 
C        C      0.125300000000     0.513300000000     0.125300000000    -0.00173371 
C        C      0.102600000000     0.432600000000     0.102600000000    -0.00173371 
C        C      0.625300000000     0.013300000000     0.625300000000    -0.00173371 
C        C      0.602600000000     0.932600000000     0.602600000000    -0.00173371 
C        C      0.125300000000     0.486700000000     0.874700000000    -0.00173371 
C        C      0.102600000000     0.567400000000     0.897400000000    -0.00173371 
C        C      0.625300000000     0.986700000000     0.374700000000    -0.00173371 
C        C      0.602600000000     0.067400000000     0.397400000000    -0.00173371 
C        C      0.874700000000     0.513300000000     0.874700000000    -0.00173371 
C        C      0.897400000000     0.432600000000     0.897400000000    -0.00173371 
C        C      0.374700000000     0.013300000000     0.374700000000    -0.00173371 
C        C      0.397400000000     0.932600000000     0.397400000000    -0.00173371 
C        C      0.125300000000     0.874700000000     0.486700000000    -0.00173371 
C        C      0.102600000000     0.897400000000     0.567400000000    -0.00173371 
C        C      0.625300000000     0.374700000000     0.986700000000    -0.00173371 
C        C      0.602600000000     0.397400000000     0.067400000000    -0.00173371 
C        C      0.125300000000     0.125300000000     0.513300000000    -0.00173371 
C        C      0.102600000000     0.102600000000     0.432600000000    -0.00173371 
C        C      0.625300000000     0.625300000000     0.013300000000    -0.00173371 
C        C      0.602600000000     0.602600000000     0.932600000000    -0.00173371 
C        C      0.874700000000     0.125300000000     0.486700000000    -0.00173371 
C        C      0.897400000000     0.102600000000     0.567400000000    -0.00173371 
C        C      0.374700000000     0.625300000000     0.986700000000    -0.00173371 
C        C      0.397400000000     0.602600000000     0.067400000000    -0.00173371 
C        C      0.874700000000     0.874700000000     0.513300000000    -0.00173371 
C        C      0.897400000000     0.897400000000     0.432600000000    -0.00173371 
C        C      0.374700000000     0.374700000000     0.013300000000    -0.00173371 
C        C      0.397400000000     0.397400000000     0.932600000000    -0.00173371 
C        C      0.486700000000     0.125300000000     0.874700000000    -0.00173371 
C        C      0.567400000000     0.102600000000     0.897400000000    -0.00173371 
C        C      0.986700000000     0.625300000000     0.374700000000    -0.00173371 
C        C      0.067400000000     0.602600000000     0.397400000000    -0.00173371 
C        C      0.513300000000     0.125300000000     0.125300000000    -0.00173371 
C        C      0.432600000000     0.102600000000     0.102600000000    -0.00173371 
C        C      0.013300000000     0.625300000000     0.625300000000    -0.00173371 
C        C      0.932600000000     0.602600000000     0.602600000000    -0.00173371 
C        C      0.486700000000     0.874700000000     0.125300000000    -0.00173371 
C        C      0.567400000000     0.897400000000     0.102600000000    -0.00173371 
C        C      0.986700000000     0.374700000000     0.625300000000    -0.00173371 
C        C      0.067400000000     0.397400000000     0.602600000000    -0.00173371 
C        C      0.513300000000     0.874700000000     0.874700000000    -0.00173371 
C        C      0.432600000000     0.897400000000     0.897400000000    -0.00173371 
C        C      0.013300000000     0.374700000000     0.374700000000    -0.00173371 
C        C      0.932600000000     0.397400000000     0.397400000000    -0.00173371 
N        N      0.914300000000     0.467700000000     0.184500000000    -0.180143   
N        N      0.414300000000     0.967700000000     0.684500000000    -0.180143   
N        N      0.085700000000     0.532300000000     0.184500000000    -0.180143   
N        N      0.585700000000     0.032300000000     0.684500000000    -0.180143   
N        N      0.085700000000     0.467700000000     0.815500000000    -0.180143   
N        N      0.585700000000     0.967700000000     0.315500000000    -0.180143   
N        N      0.914300000000     0.532300000000     0.815500000000    -0.180143   
N        N      0.414300000000     0.032300000000     0.315500000000    -0.180143   
N        N      0.184500000000     0.914300000000     0.467700000000    -0.180143   
N        N      0.684500000000     0.414300000000     0.967700000000    -0.180143   
N        N      0.184500000000     0.085700000000     0.532300000000    -0.180143   
N        N      0.684500000000     0.585700000000     0.032300000000    -0.180143   
N        N      0.815500000000     0.085700000000     0.467700000000    -0.180143   
N        N      0.315500000000     0.585700000000     0.967700000000    -0.180143   
N        N      0.815500000000     0.914300000000     0.532300000000    -0.180143   
N        N      0.315500000000     0.414300000000     0.032300000000    -0.180143   
N        N      0.467700000000     0.184500000000     0.914300000000    -0.180143   
N        N      0.967700000000     0.684500000000     0.414300000000    -0.180143   
N        N      0.532300000000     0.184500000000     0.085700000000    -0.180143   
N        N      0.032300000000     0.684500000000     0.585700000000    -0.180143   
N        N      0.467700000000     0.815500000000     0.085700000000    -0.180143   
N        N      0.967700000000     0.315500000000     0.585700000000    -0.180143   
N        N      0.532300000000     0.815500000000     0.914300000000    -0.180143   
N        N      0.032300000000     0.315500000000     0.414300000000    -0.180143   
N        N      0.467700000000     0.914300000000     0.184500000000    -0.180143   
N        N      0.967700000000     0.414300000000     0.684500000000    -0.180143   
N        N      0.532300000000     0.085700000000     0.184500000000    -0.180143   
N        N      0.032300000000     0.585700000000     0.684500000000    -0.180143   
N        N      0.467700000000     0.085700000000     0.815500000000    -0.180143   
N        N      0.967700000000     0.585700000000     0.315500000000    -0.180143   
N        N      0.532300000000     0.914300000000     0.815500000000    -0.180143   
N        N      0.032300000000     0.414300000000     0.315500000000    -0.180143   
N        N      0.914300000000     0.184500000000     0.467700000000    -0.180143   
N        N      0.414300000000     0.684500000000     0.967700000000    -0.180143   
N        N      0.085700000000     0.184500000000     0.532300000000    -0.180143   
N        N      0.585700000000     0.684500000000     0.032300000000    -0.180143   
N        N      0.085700000000     0.815500000000     0.467700000000    -0.180143   
N        N      0.585700000000     0.315500000000     0.967700000000    -0.180143   
N        N      0.914300000000     0.815500000000     0.532300000000    -0.180143   
N        N      0.414300000000     0.315500000000     0.032300000000    -0.180143   
N        N      0.184500000000     0.467700000000     0.914300000000    -0.180143   
N        N      0.684500000000     0.967700000000     0.414300000000    -0.180143   
N        N      0.184500000000     0.532300000000     0.085700000000    -0.180143   
N        N      0.684500000000     0.032300000000     0.585700000000    -0.180143   
N        N      0.815500000000     0.467700000000     0.085700000000    -0.180143   
N        N      0.315500000000     0.967700000000     0.585700000000    -0.180143   
N        N      0.815500000000     0.532300000000     0.914300000000    -0.180143   
N        N      0.315500000000     0.032300000000     0.414300000000    -0.180143   
O        O      0.885600000000     0.612900000000     0.051400000000    -0.134101   
O        O      0.114400000000     0.387100000000     0.051400000000    -0.134101   
O        O      0.385600000000     0.887100000000     0.448600000000    -0.134101   
O        O      0.051400000000     0.885600000000     0.612900000000    -0.134101   
O        O      0.051400000000     0.114400000000     0.387100000000    -0.134101   
O        O      0.551400000000     0.614400000000     0.887100000000    -0.134101   
O        O      0.948600000000     0.885600000000     0.387100000000    -0.134101   
O        O      0.448600000000     0.385600000000     0.887100000000    -0.134101   
O        O      0.112900000000     0.551400000000     0.385600000000    -0.134101   
O        O      0.887100000000     0.551400000000     0.614400000000    -0.134101   
O        O      0.112900000000     0.448600000000     0.614400000000    -0.134101   
O        O      0.387100000000     0.948600000000     0.885600000000    -0.134101   
O        O      0.612900000000     0.885600000000     0.051400000000    -0.134101   
O        O      0.387100000000     0.114400000000     0.051400000000    -0.134101   
O        O      0.612900000000     0.114400000000     0.948600000000    -0.134101   
O        O      0.887100000000     0.385600000000     0.448600000000    -0.134101   
O        O      0.885600000000     0.051400000000     0.612900000000    -0.134101   
O        O      0.385600000000     0.551400000000     0.112900000000    -0.134101   
O        O      0.614400000000     0.448600000000     0.112900000000    -0.134101   
O        O      0.051400000000     0.612900000000     0.885600000000    -0.134101   
O        O      0.551400000000     0.112900000000     0.385600000000    -0.134101   
O        O      0.551400000000     0.887100000000     0.614400000000    -0.134101   
O        O      0.448600000000     0.112900000000     0.614400000000    -0.134101   
O        O      0.948600000000     0.387100000000     0.885600000000    -0.134101   


