data_ZNGLUD01_original

_audit_creation_method RASPA-1.0
_audit_creation_date 2022-1-29
_audit_author_name 'Felipe Lopes de Oliveira <felipe.lopes.oliveira@ibm.com>'

_cell_length_a    7.177
_cell_length_b    10.396
_cell_length_c    11.121
_cell_angle_alpha 90
_cell_angle_beta  90
_cell_angle_gamma 90
_cell_volume      829.761

_symmetry_cell_setting          triclinic
_symmetry_space_group_name_Hall 'P 1'
_symmetry_space_group_name_H-M  'P 1'
_symmetry_Int_Tables_number     1

_symmetry_equiv_pos_as_xyz 'x,y,z'

loop_
_atom_site_label
_atom_site_type_symbol
_atom_site_fract_x
_atom_site_fract_y
_atom_site_fract_z
_atom_site_charge
Zn       Zn     0.377440000000     0.070910000000     0.040910000000     0.416548   
Zn       Zn     0.122560000000     0.929090000000     0.540910000000     0.416548   
Zn       Zn     0.622560000000     0.570910000000     0.459090000000     0.416548   
Zn       Zn     0.877440000000     0.429090000000     0.959090000000     0.416548   
H        H      0.787900000000     0.123600000000     0.819400000000     0.107236   
H        H      0.651900000000     0.003200000000     0.802000000000     0.107236   
H        H      0.620300000000     0.240300000000     0.674300000000     0.107236   
H        H      0.487700000000     0.119200000000     0.651300000000     0.107236   
H        H      0.341600000000     0.277100000000     0.772300000000     0.107236   
H        H      0.313000000000     0.041000000000     0.816000000000     0.107236   
H        H      0.199000000000     0.129000000000     0.866000000000     0.107236   
H        H      0.712100000000     0.876400000000     0.319400000000     0.107236   
H        H      0.848100000000     0.996800000000     0.302000000000     0.107236   
H        H      0.879700000000     0.759700000000     0.174300000000     0.107236   
H        H      0.012300000000     0.880800000000     0.151300000000     0.107236   
H        H      0.158400000000     0.722900000000     0.272300000000     0.107236   
H        H      0.187000000000     0.959000000000     0.316000000000     0.107236   
H        H      0.301000000000     0.871000000000     0.366000000000     0.107236   
H        H      0.212100000000     0.623600000000     0.680600000000     0.107236   
H        H      0.348100000000     0.503200000000     0.698000000000     0.107236   
H        H      0.379700000000     0.740300000000     0.825700000000     0.107236   
H        H      0.512300000000     0.619200000000     0.848700000000     0.107236   
H        H      0.658400000000     0.777100000000     0.727700000000     0.107236   
H        H      0.687000000000     0.541000000000     0.684000000000     0.107236   
H        H      0.801000000000     0.629000000000     0.634000000000     0.107236   
H        H      0.287900000000     0.376400000000     0.180600000000     0.107236   
H        H      0.151900000000     0.496800000000     0.198000000000     0.107236   
H        H      0.120300000000     0.259700000000     0.325700000000     0.107236   
H        H      0.987700000000     0.380800000000     0.348700000000     0.107236   
H        H      0.841600000000     0.222900000000     0.227700000000     0.107236   
H        H      0.813000000000     0.459000000000     0.184000000000     0.107236   
H        H      0.699000000000     0.371000000000     0.134000000000     0.107236   
C        C      0.837800000000     0.024600000000     0.661710000000     0.060622   
C        C      0.711200000000     0.076500000000     0.759910000000     0.060622   
C        C      0.560600000000     0.165200000000     0.713380000000     0.060622   
C        C      0.536500000000     0.282600000000     0.909420000000     0.060622   
C        C      0.428000000000     0.213400000000     0.810140000000     0.060622   
C        C      0.662200000000     0.975400000000     0.161710000000     0.060622   
C        C      0.788800000000     0.923500000000     0.259910000000     0.060622   
C        C      0.939400000000     0.834800000000     0.213380000000     0.060622   
C        C      0.963500000000     0.717400000000     0.409420000000     0.060622   
C        C      0.072000000000     0.786600000000     0.310140000000     0.060622   
C        C      0.162200000000     0.524600000000     0.838290000000     0.060622   
C        C      0.288800000000     0.576500000000     0.740090000000     0.060622   
C        C      0.439400000000     0.665200000000     0.786620000000     0.060622   
C        C      0.463500000000     0.782600000000     0.590580000000     0.060622   
C        C      0.572000000000     0.713400000000     0.689860000000     0.060622   
C        C      0.337800000000     0.475400000000     0.338290000000     0.060622   
C        C      0.211200000000     0.423500000000     0.240090000000     0.060622   
C        C      0.060600000000     0.334800000000     0.286620000000     0.060622   
C        C      0.036500000000     0.217400000000     0.090580000000     0.060622   
C        C      0.928000000000     0.286600000000     0.189860000000     0.060622   
N        N      0.314400000000     0.108520000000     0.860950000000    -0.298907   
N        N      0.185600000000     0.891480000000     0.360950000000    -0.298907   
N        N      0.685600000000     0.608520000000     0.639050000000    -0.298907   
N        N      0.814400000000     0.391480000000     0.139050000000    -0.298907   
O        O      0.983900000000     0.964480000000     0.696760000000    -0.29285    
O        O      0.802400000000     0.038980000000     0.553210000000    -0.29285    
O        O      0.520400000000     0.244910000000     0.015690000000    -0.29285    
O        O      0.640000000000     0.373000000000     0.874860000000    -0.29285    
O        O      0.516100000000     0.035520000000     0.196760000000    -0.29285    
O        O      0.697600000000     0.961020000000     0.053210000000    -0.29285    
O        O      0.979600000000     0.755090000000     0.515690000000    -0.29285    
O        O      0.860000000000     0.627000000000     0.374860000000    -0.29285    
O        O      0.016100000000     0.464480000000     0.803240000000    -0.29285    
O        O      0.197600000000     0.538980000000     0.946790000000    -0.29285    
O        O      0.479600000000     0.744910000000     0.484310000000    -0.29285    
O        O      0.360000000000     0.873000000000     0.625140000000    -0.29285    
O        O      0.483900000000     0.535520000000     0.303240000000    -0.29285    
O        O      0.302400000000     0.461020000000     0.446790000000    -0.29285    
O        O      0.020400000000     0.255090000000     0.984310000000    -0.29285    
O        O      0.140000000000     0.127000000000     0.125140000000    -0.29285    


