data_ZnMOF-74_original

_audit_creation_method RASPA-1.0
_audit_creation_date 2022-1-29
_audit_author_name 'Felipe Lopes de Oliveira <felipe.lopes.oliveira@ibm.com>'

_cell_length_a    6.935
_cell_length_b    15.2965
_cell_length_c    15.2965
_cell_angle_alpha 117.758
_cell_angle_beta  98.6921
_cell_angle_gamma 98.6921
_cell_volume      1373.18

_symmetry_cell_setting          triclinic
_symmetry_space_group_name_Hall 'P 1'
_symmetry_space_group_name_H-M  'P 1'
_symmetry_Int_Tables_number     1

_symmetry_equiv_pos_as_xyz 'x,y,z'

loop_
_atom_site_label
_atom_site_type_symbol
_atom_site_fract_x
_atom_site_fract_y
_atom_site_fract_z
_atom_site_charge
Zn       Zn     0.886520000000     0.673270000000     0.401960000000     0.481204   
Zn       Zn     0.213250000000     0.728690000000     0.326730000000     0.481204   
Zn       Zn     0.484560000000     0.598040000000     0.271310000000     0.481204   
Zn       Zn     0.113480000000     0.326730000000     0.598040000000     0.481204   
Zn       Zn     0.786750000000     0.271310000000     0.673270000000     0.481204   
Zn       Zn     0.515440000000     0.401960000000     0.728690000000     0.481204   
H        H      0.355530000000     0.976680000000     0.527450000000     0.0735855  
H        H      0.378850000000     0.550770000000     0.023320000000     0.0735855  
H        H      0.828080000000     0.472550000000     0.449230000000     0.0735855  
H        H      0.644470000000     0.023320000000     0.472550000000     0.0735855  
H        H      0.621150000000     0.449230000000     0.976680000000     0.0735855  
H        H      0.171920000000     0.527450000000     0.550770000000     0.0735855  
C        C      0.646300000000     0.827530000000     0.392460000000     0.0752802  
C        C      0.818770000000     0.564930000000     0.172470000000     0.0752802  
C        C      0.253840000000     0.607540000000     0.435070000000     0.0752802  
C        C      0.353700000000     0.172470000000     0.607540000000     0.0752802  
C        C      0.181230000000     0.435070000000     0.827530000000     0.0752802  
C        C      0.746160000000     0.392460000000     0.564930000000     0.0752802  
C        C      0.829990000000     0.913710000000     0.448750000000     0.0752802  
C        C      0.916280000000     0.535040000000     0.086290000000     0.0752802  
C        C      0.381240000000     0.551250000000     0.464960000000     0.0752802  
C        C      0.170010000000     0.086290000000     0.551250000000     0.0752802  
C        C      0.083720000000     0.464960000000     0.913710000000     0.0752802  
C        C      0.618760000000     0.448750000000     0.535040000000     0.0752802  
C        C      0.032560000000     0.898200000000     0.464180000000     0.0752802  
C        C      0.134360000000     0.565980000000     0.101800000000     0.0752802  
C        C      0.568380000000     0.535820000000     0.434020000000     0.0752802  
C        C      0.967440000000     0.101800000000     0.535820000000     0.0752802  
C        C      0.865640000000     0.434020000000     0.898200000000     0.0752802  
C        C      0.431620000000     0.464180000000     0.565980000000     0.0752802  
C        C      0.198120000000     0.986110000000     0.514990000000     0.0752802  
C        C      0.212010000000     0.528880000000     0.013890000000     0.0752802  
C        C      0.683130000000     0.485010000000     0.471120000000     0.0752802  
C        C      0.801880000000     0.013890000000     0.485010000000     0.0752802  
C        C      0.787990000000     0.471120000000     0.986110000000     0.0752802  
C        C      0.316870000000     0.514990000000     0.528880000000     0.0752802  
O        O      0.670190000000     0.732810000000     0.358900000000    -0.285303   
O        O      0.937380000000     0.626090000000     0.267190000000    -0.285303   
O        O      0.311290000000     0.641100000000     0.373910000000    -0.285303   
O        O      0.329810000000     0.267190000000     0.641100000000    -0.285303   
O        O      0.062620000000     0.373910000000     0.732810000000    -0.285303   
O        O      0.688710000000     0.358900000000     0.626090000000    -0.285303   
O        O      0.462170000000     0.841890000000     0.375220000000    -0.285303   
O        O      0.620280000000     0.533330000000     0.158110000000    -0.285303   
O        O      0.086950000000     0.624780000000     0.466670000000    -0.285303   
O        O      0.537830000000     0.158110000000     0.624780000000    -0.285303   
O        O      0.379720000000     0.466670000000     0.841890000000    -0.285303   
O        O      0.913050000000     0.375220000000     0.533330000000    -0.285303   
O        O      0.071230000000     0.803010000000     0.432170000000    -0.285303   
O        O      0.268220000000     0.629160000000     0.196990000000    -0.285303   
O        O      0.639060000000     0.567830000000     0.370840000000    -0.285303   
O        O      0.928770000000     0.196990000000     0.567830000000    -0.285303   
O        O      0.731780000000     0.370840000000     0.803010000000    -0.285303   
O        O      0.360940000000     0.432170000000     0.629160000000    -0.285303   


